A71EV2A-x7410a_best-RMSD
  FITTED

 45 48     0  0  0  0  0  0  0999 V2000
    9.2896    8.7569   23.4058 C    0  0  0  0  0  0  0  0  0  0  0  0
    9.1933   10.5162   23.8897 S    0  0  0  0  0  0  0  0  0  0  0  0
    7.6553   10.7353   24.7908 C    0  0  0  0  0  0  0  0  0  0  0  0
    6.9359    9.6561   25.3411 C    0  0  0  0  0  0  0  0  0  0  0  0
    5.7536    9.8670   26.0585 C    0  0  0  0  0  0  0  0  0  0  0  0
    5.2263   11.1631   26.1877 C    0  0  0  0  0  0  0  0  0  0  0  0
    4.0114   11.4020   26.8283 C    0  0  0  0  0  0  0  0  0  0  0  0
    3.2890   10.5939   27.6644 C    0  0  0  0  0  0  0  0  0  0  0  0
    2.1044   11.3687   28.0451 N    0  0  0  0  0  0  0  0  0  0  0  0
    2.0959   12.4667   27.3936 N    0  0  0  0  0  0  0  0  0  0  0  0
    3.2758   12.5342   26.7327 N    0  0  0  0  0  0  0  0  0  0  0  0
    5.9459   12.2458   25.6548 C    0  0  0  0  0  0  0  0  0  0  0  0
    7.1498   12.0344   24.9928 C    0  0  0  0  0  0  0  0  0  0  0  0
    7.8524   13.1554   24.6301 O    0  0  0  0  0  0  0  0  0  0  0  0
    7.8320   13.7116   23.3964 C    0  0  0  0  0  0  0  0  0  0  0  0
    7.0610   13.3339   22.5405 O    0  0  0  0  0  0  0  0  0  0  0  0
    8.8575   14.5861   23.1416 N    0  0  0  0  0  0  0  0  0  0  0  0
    9.0708   15.2488   21.8251 C    0  0  0  0  0  0  0  0  0  0  0  0
   10.5570   15.1464   21.3336 C    0  0  0  0  0  0  0  0  0  0  0  0
   10.7409   15.7044   19.9212 C    0  0  0  0  0  0  0  0  0  0  0  0
   11.6262   15.0663   19.1198 N    0  0  0  0  0  0  0  0  0  0  0  0
   10.1795   16.6845   19.4826 O    0  0  0  0  0  0  0  0  0  0  0  0
   11.5086   15.8431   22.3677 C    0  0  0  0  0  0  0  0  0  0  0  0
   11.3260   15.2425   23.7727 C    0  0  0  0  0  0  0  0  0  0  0  0
   11.2070   13.7731   24.1096 C    0  0  0  0  0  0  0  0  0  0  0  0
    9.9952   14.6704   24.1396 C    0  0  0  0  0  0  0  0  0  0  0  0
    9.3862    8.1264   24.2824 H    0  0  0  0  0  0  0  0  0  0  0  0
   10.1512    8.6128   22.7535 H    0  0  0  0  0  0  0  0  0  0  0  0
    8.3912    8.4598   22.8461 H    0  0  0  0  0  0  0  0  0  0  0  0
    7.2802    8.6378   25.2357 H    0  0  0  0  0  0  0  0  0  0  0  0
    5.2400    9.0101   26.4857 H    0  0  0  0  0  0  0  0  0  0  0  0
    3.5107    9.5916   28.0308 H    0  0  0  0  0  0  0  0  0  0  0  0
    3.4814   13.2265   26.0025 H    0  0  0  0  0  0  0  0  0  0  0  0
    5.5920   13.2698   25.7758 H    0  0  0  0  0  0  0  0  0  0  0  0
    8.7686   16.2988   21.9269 H    0  0  0  0  0  0  0  0  0  0  0  0
    8.4227   14.8287   21.0519 H    0  0  0  0  0  0  0  0  0  0  0  0
   10.7957   14.0751   21.3063 H    0  0  0  0  0  0  0  0  0  0  0  0
   12.1808   14.2969   19.4728 H    0  0  0  0  0  0  0  0  0  0  0  0
   11.9716   15.5199   18.2529 H    0  0  0  0  0  0  0  0  0  0  0  0
   11.2651   16.9107   22.4224 H    0  0  0  0  0  0  0  0  0  0  0  0
   12.5484   15.7667   22.0486 H    0  0  0  0  0  0  0  0  0  0  0  0
   11.8099   15.8450   24.5363 H    0  0  0  0  0  0  0  0  0  0  0  0
   11.6295   13.4370   25.0499 H    0  0  0  0  0  0  0  0  0  0  0  0
   11.2766   13.0359   23.3150 H    0  0  0  0  0  0  0  0  0  0  0  0
    9.4766   15.0417   25.0210 H    0  0  0  0  0  0  0  0  0  0  0  0
 14 15  1  0  0  0  0
 13 14  1  0  0  0  0
 12 13  2  0  0  0  0
  6 12  1  0  0  0  0
  5  6  2  0  0  0  0
  4  5  1  0  0  0  0
  3  4  2  0  0  0  0
  2  3  1  0  0  0  0
  1  2  1  0  0  0  0
 27  1  1  0  0  0  0
 28  1  1  0  0  0  0
 29  1  1  0  0  0  0
 30  4  1  0  0  0  0
 31  5  1  0  0  0  0
  7  6  1  0  0  0  0
  8  7  2  0  0  0  0
  9  8  1  0  0  0  0
 32  8  1  0  0  0  0
 10  9  2  0  0  0  0
 11 10  1  0  0  0  0
 33 11  1  0  0  0  0
 34 12  1  0  0  0  0
 16 15  2  0  0  0  0
 17 15  1  0  0  0  0
 18 17  1  0  0  0  0
 19 18  1  0  0  0  0
 35 18  1  0  0  0  0
 36 18  1  0  0  0  0
 20 19  1  0  0  0  0
 23 19  1  0  0  0  0
 37 19  1  0  0  0  0
 21 20  1  0  0  0  0
 22 20  2  0  0  0  0
 38 21  1  0  0  0  0
 39 21  1  0  0  0  0
 40 23  1  0  0  0  0
 41 23  1  0  0  0  0
 24 23  1  0  0  0  0
 25 24  1  0  0  0  0
 42 24  1  0  0  0  0
 43 25  1  0  0  0  0
 44 25  1  0  0  0  0
 26 25  1  0  0  0  0
 45 26  1  0  0  0  0
 11  7  1  0  0  0  0
 13  3  1  0  0  0  0
 26 17  1  0  0  0  0
 26 24  1  0  0  0  0
M  END
>  <FittedScore>
-30.22

$$$$
