A71EV2A-x7410a_lowest-energy
  FITTED

 45 48     0  0  0  0  0  0  0999 V2000
    9.4502    8.6805   23.4923 C    0  0  0  0  0  0  0  0  0  0  0  0
    9.4241   10.4839   23.7700 S    0  0  0  0  0  0  0  0  0  0  0  0
    7.8409   10.7112   24.5592 C    0  0  0  0  0  0  0  0  0  0  0  0
    7.1548    9.6202   25.1310 C    0  0  0  0  0  0  0  0  0  0  0  0
    5.9638    9.7635   25.7714 C    0  0  0  0  0  0  0  0  0  0  0  0
    5.3568   11.0151   25.8534 C    0  0  0  0  0  0  0  0  0  0  0  0
    4.1683   11.1348   26.5287 C    0  0  0  0  0  0  0  0  0  0  0  0
    3.5367   10.1817   27.2821 C    0  0  0  0  0  0  0  0  0  0  0  0
    2.2364   10.7354   27.5921 N    0  0  0  0  0  0  0  0  0  0  0  0
    2.1324   11.8927   27.0388 N    0  0  0  0  0  0  0  0  0  0  0  0
    3.3379   12.1943   26.5035 N    0  0  0  0  0  0  0  0  0  0  0  0
    5.9856   12.1254   25.2490 C    0  0  0  0  0  0  0  0  0  0  0  0
    7.2463   11.9842   24.6731 C    0  0  0  0  0  0  0  0  0  0  0  0
    7.8992   13.1271   24.2868 O    0  0  0  0  0  0  0  0  0  0  0  0
    7.7732   13.6793   23.0472 C    0  0  0  0  0  0  0  0  0  0  0  0
    6.9567   13.3307   22.2182 O    0  0  0  0  0  0  0  0  0  0  0  0
    8.8021   14.4884   22.7180 N    0  0  0  0  0  0  0  0  0  0  0  0
    9.0796   14.9800   21.3490 C    0  0  0  0  0  0  0  0  0  0  0  0
   10.6014   15.1496   21.0656 C    0  0  0  0  0  0  0  0  0  0  0  0
   10.8614   15.8258   19.7126 C    0  0  0  0  0  0  0  0  0  0  0  0
   11.4362   15.0581   18.7852 N    0  0  0  0  0  0  0  0  0  0  0  0
   10.3237   16.8365   19.3028 O    0  0  0  0  0  0  0  0  0  0  0  0
   11.2812   15.9160   22.2076 C    0  0  0  0  0  0  0  0  0  0  0  0
   11.0589   15.4421   23.6485 C    0  0  0  0  0  0  0  0  0  0  0  0
   10.7382   14.3085   24.5697 C    0  0  0  0  0  0  0  0  0  0  0  0
    9.6420   15.0281   23.8384 C    0  0  0  0  0  0  0  0  0  0  0  0
    8.5787    8.4021   22.9112 H    0  0  0  0  0  0  0  0  0  0  0  0
    9.4446    8.1952   24.4858 H    0  0  0  0  0  0  0  0  0  0  0  0
   10.3108    8.3513   22.9502 H    0  0  0  0  0  0  0  0  0  0  0  0
    7.5130    8.6031   25.1800 H    0  0  0  0  0  0  0  0  0  0  0  0
    5.5445    8.8523   26.1923 H    0  0  0  0  0  0  0  0  0  0  0  0
    3.8856    9.2015   27.5963 H    0  0  0  0  0  0  0  0  0  0  0  0
    3.5540   13.0075   25.9318 H    0  0  0  0  0  0  0  0  0  0  0  0
    5.5284   13.1088   25.2634 H    0  0  0  0  0  0  0  0  0  0  0  0
    8.4881   15.9034   21.2021 H    0  0  0  0  0  0  0  0  0  0  0  0
    8.7254   14.2518   20.5979 H    0  0  0  0  0  0  0  0  0  0  0  0
   11.0967   14.1777   21.1160 H    0  0  0  0  0  0  0  0  0  0  0  0
   11.7357   15.4979   17.9110 H    0  0  0  0  0  0  0  0  0  0  0  0
   11.5934   14.0703   18.9674 H    0  0  0  0  0  0  0  0  0  0  0  0
   10.7450   16.8962   22.2044 H    0  0  0  0  0  0  0  0  0  0  0  0
   12.2777   16.2696   21.9881 H    0  0  0  0  0  0  0  0  0  0  0  0
   11.4274   16.2809   24.2675 H    0  0  0  0  0  0  0  0  0  0  0  0
   10.7925   14.5499   25.6365 H    0  0  0  0  0  0  0  0  0  0  0  0
   11.1634   13.3601   24.2895 H    0  0  0  0  0  0  0  0  0  0  0  0
    8.9314   15.7402   24.2384 H    0  0  0  0  0  0  0  0  0  0  0  0
 14 15  1  0  0  0  0
 13 14  1  0  0  0  0
 12 13  2  0  0  0  0
  6 12  1  0  0  0  0
  5  6  2  0  0  0  0
  4  5  1  0  0  0  0
  3  4  2  0  0  0  0
  2  3  1  0  0  0  0
  1  2  1  0  0  0  0
 27  1  1  0  0  0  0
 28  1  1  0  0  0  0
 29  1  1  0  0  0  0
 30  4  1  0  0  0  0
 31  5  1  0  0  0  0
  7  6  1  0  0  0  0
  8  7  2  0  0  0  0
  9  8  1  0  0  0  0
 32  8  1  0  0  0  0
 10  9  2  0  0  0  0
 11 10  1  0  0  0  0
 33 11  1  0  0  0  0
 34 12  1  0  0  0  0
 16 15  2  0  0  0  0
 17 15  1  0  0  0  0
 18 17  1  0  0  0  0
 19 18  1  0  0  0  0
 35 18  1  0  0  0  0
 36 18  1  0  0  0  0
 20 19  1  0  0  0  0
 23 19  1  0  0  0  0
 37 19  1  0  0  0  0
 21 20  1  0  0  0  0
 22 20  2  0  0  0  0
 38 21  1  0  0  0  0
 39 21  1  0  0  0  0
 40 23  1  0  0  0  0
 41 23  1  0  0  0  0
 24 23  1  0  0  0  0
 25 24  1  0  0  0  0
 42 24  1  0  0  0  0
 43 25  1  0  0  0  0
 44 25  1  0  0  0  0
 26 25  1  0  0  0  0
 45 26  1  0  0  0  0
 11  7  1  0  0  0  0
 13  3  1  0  0  0  0
 26 17  1  0  0  0  0
 26 24  1  0  0  0  0
M  END
>  <FittedScore>
-32.93

$$$$
