A71EV2A-x7015a_best-RMSD
  FITTED

 60 63     0  0  0  0  0  0  0999 V2000
    9.7088    8.1300   23.6007 C    0  0  0  0  0  0  0  0  0  0  0  0
    9.5641    9.9337   23.6893 S    0  0  0  0  0  0  0  0  0  0  0  0
    8.2206   10.3332   24.8114 C    0  0  0  0  0  0  0  0  0  0  0  0
    7.4811    9.2964   25.2902 N    0  0  0  0  0  0  0  0  0  0  0  0
    6.4812    9.5638   26.1689 C    0  0  0  0  0  0  0  0  0  0  0  0
    6.1384   10.8092   26.5826 N    0  0  0  0  0  0  0  0  0  0  0  0
    6.8142   11.8879   26.0714 C    0  0  0  0  0  0  0  0  0  0  0  0
    6.3340   13.1477   26.4505 N    0  0  0  0  0  0  0  0  0  0  0  0
    7.1348   14.0087   27.3675 C    0  0  0  0  0  0  0  0  0  0  0  0
    7.2677   15.4672   26.8383 C    0  0  0  0  0  0  0  0  0  0  0  0
    6.0971   16.3655   27.2365 C    0  0  0  0  0  0  0  0  0  0  0  0
    6.3399   17.4996   28.0394 C    0  0  0  0  0  0  0  0  0  0  0  0
    5.2752   18.2746   28.5142 C    0  0  0  0  0  0  0  0  0  0  0  0
    3.9582   17.9192   28.1998 C    0  0  0  0  0  0  0  0  0  0  0  0
    3.7050   16.8065   27.3850 C    0  0  0  0  0  0  0  0  0  0  0  0
    4.7665   16.0286   26.8737 C    0  0  0  0  0  0  0  0  0  0  0  0
    4.4613   14.8413   25.9387 C    0  0  0  0  0  0  0  0  0  0  0  0
    4.8586   13.4272   26.4453 C    0  0  0  0  0  0  0  0  0  0  0  0
    7.9232   11.6788   25.1857 C    0  0  0  0  0  0  0  0  0  0  0  0
    8.7717   12.8507   24.6503 C    0  0  0  0  0  0  0  0  0  0  0  0
    8.1340   13.6477   23.5022 C    0  0  0  0  0  0  0  0  0  0  0  0
    7.3437   13.0763   22.7639 O    0  0  0  0  0  0  0  0  0  0  0  0
    8.7009   14.8609   23.1526 N    0  0  0  0  0  0  0  0  0  0  0  0
    9.6925   15.6542   23.9568 C    0  0  0  0  0  0  0  0  0  0  0  0
   11.1381   15.4944   23.4135 C    0  0  0  0  0  0  0  0  0  0  0  0
   11.2154   15.8893   21.9111 C    0  0  0  0  0  0  0  0  0  0  0  0
   10.0904   15.1936   21.0777 C    0  0  0  0  0  0  0  0  0  0  0  0
   10.1427   15.6509   19.6182 C    0  0  0  0  0  0  0  0  0  0  0  0
   10.7259   14.7847   18.7689 N    0  0  0  0  0  0  0  0  0  0  0  0
    9.6656   16.6926   19.2062 O    0  0  0  0  0  0  0  0  0  0  0  0
    8.6872   15.3918   21.7481 C    0  0  0  0  0  0  0  0  0  0  0  0
    9.9028    7.7148   24.5939 H    0  0  0  0  0  0  0  0  0  0  0  0
   10.5361    7.8583   22.9380 H    0  0  0  0  0  0  0  0  0  0  0  0
    8.7846    7.7049   23.2042 H    0  0  0  0  0  0  0  0  0  0  0  0
    5.9128    8.7256   26.5623 H    0  0  0  0  0  0  0  0  0  0  0  0
    8.1369   13.6115   27.5395 H    0  0  0  0  0  0  0  0  0  0  0  0
    6.6994   14.0268   28.3698 H    0  0  0  0  0  0  0  0  0  0  0  0
    7.3394   15.4788   25.7513 H    0  0  0  0  0  0  0  0  0  0  0  0
    8.2130   15.8864   27.1941 H    0  0  0  0  0  0  0  0  0  0  0  0
    7.3544   17.7863   28.3122 H    0  0  0  0  0  0  0  0  0  0  0  0
    5.4729   19.1418   29.1377 H    0  0  0  0  0  0  0  0  0  0  0  0
    3.1308   18.5058   28.5889 H    0  0  0  0  0  0  0  0  0  0  0  0
    2.6720   16.5541   27.1561 H    0  0  0  0  0  0  0  0  0  0  0  0
    4.9246   15.0251   24.9649 H    0  0  0  0  0  0  0  0  0  0  0  0
    3.3878   14.8120   25.7290 H    0  0  0  0  0  0  0  0  0  0  0  0
    4.3274   12.7185   25.8021 H    0  0  0  0  0  0  0  0  0  0  0  0
    4.4351   13.2863   27.4450 H    0  0  0  0  0  0  0  0  0  0  0  0
    9.7671   12.5527   24.3179 H    0  0  0  0  0  0  0  0  0  0  0  0
    9.0213   13.4621   25.5038 H    0  0  0  0  0  0  0  0  0  0  0  0
    9.6928   15.4233   25.0168 H    0  0  0  0  0  0  0  0  0  0  0  0
    9.4191   16.7141   23.9351 H    0  0  0  0  0  0  0  0  0  0  0  0
   11.4700   14.4583   23.5451 H    0  0  0  0  0  0  0  0  0  0  0  0
   11.8152   16.1226   23.9983 H    0  0  0  0  0  0  0  0  0  0  0  0
   12.1931   15.6073   21.5149 H    0  0  0  0  0  0  0  0  0  0  0  0
   11.1422   16.9786   21.8222 H    0  0  0  0  0  0  0  0  0  0  0  0
   10.2834   14.1082   21.1107 H    0  0  0  0  0  0  0  0  0  0  0  0
   10.7640   15.0203   17.7826 H    0  0  0  0  0  0  0  0  0  0  0  0
   11.0004   13.8528   19.0827 H    0  0  0  0  0  0  0  0  0  0  0  0
    7.9211   14.9236   21.1241 H    0  0  0  0  0  0  0  0  0  0  0  0
    8.4063   16.4521   21.7626 H    0  0  0  0  0  0  0  0  0  0  0  0
 19 20  1  0  0  0  0
  7 19  2  0  0  0  0
  6  7  1  0  0  0  0
  5  6  2  0  0  0  0
  4  5  1  0  0  0  0
  3  4  2  0  0  0  0
  2  3  1  0  0  0  0
  1  2  1  0  0  0  0
 32  1  1  0  0  0  0
 33  1  1  0  0  0  0
 34  1  1  0  0  0  0
 35  5  1  0  0  0  0
  8  7  1  0  0  0  0
  9  8  1  0  0  0  0
 10  9  1  0  0  0  0
 36  9  1  0  0  0  0
 37  9  1  0  0  0  0
 11 10  1  0  0  0  0
 38 10  1  0  0  0  0
 39 10  1  0  0  0  0
 12 11  2  0  0  0  0
 13 12  1  0  0  0  0
 40 12  1  0  0  0  0
 14 13  2  0  0  0  0
 41 13  1  0  0  0  0
 15 14  1  0  0  0  0
 42 14  1  0  0  0  0
 16 15  2  0  0  0  0
 43 15  1  0  0  0  0
 17 16  1  0  0  0  0
 18 17  1  0  0  0  0
 44 17  1  0  0  0  0
 45 17  1  0  0  0  0
 46 18  1  0  0  0  0
 47 18  1  0  0  0  0
 21 20  1  0  0  0  0
 48 20  1  0  0  0  0
 49 20  1  0  0  0  0
 22 21  2  0  0  0  0
 23 21  1  0  0  0  0
 24 23  1  0  0  0  0
 25 24  1  0  0  0  0
 50 24  1  0  0  0  0
 51 24  1  0  0  0  0
 26 25  1  0  0  0  0
 52 25  1  0  0  0  0
 53 25  1  0  0  0  0
 27 26  1  0  0  0  0
 54 26  1  0  0  0  0
 55 26  1  0  0  0  0
 28 27  1  0  0  0  0
 31 27  1  0  0  0  0
 56 27  1  0  0  0  0
 29 28  1  0  0  0  0
 30 28  2  0  0  0  0
 57 29  1  0  0  0  0
 58 29  1  0  0  0  0
 59 31  1  0  0  0  0
 60 31  1  0  0  0  0
 16 11  1  0  0  0  0
 18  8  1  0  0  0  0
 19  3  1  0  0  0  0
 31 23  1  0  0  0  0
M  END
>  <FittedScore>
-37.63

$$$$
