A71EV2A-x7015a_lowest-energy
  FITTED

 60 63     0  0  0  0  0  0  0999 V2000
    9.5797    8.4272   23.5190 C    0  0  0  0  0  0  0  0  0  0  0  0
    9.5015   10.1971   23.9117 S    0  0  0  0  0  0  0  0  0  0  0  0
    8.0676   10.4417   24.9748 C    0  0  0  0  0  0  0  0  0  0  0  0
    7.3187    9.3538   25.3233 N    0  0  0  0  0  0  0  0  0  0  0  0
    6.2466    9.5474   26.1349 C    0  0  0  0  0  0  0  0  0  0  0  0
    5.8304   10.7548   26.5936 N    0  0  0  0  0  0  0  0  0  0  0  0
    6.5302   11.8678   26.2223 C    0  0  0  0  0  0  0  0  0  0  0  0
    6.0048   13.0856   26.6415 N    0  0  0  0  0  0  0  0  0  0  0  0
    5.7987   13.3860   28.0805 C    0  0  0  0  0  0  0  0  0  0  0  0
    4.3472   13.0725   28.5634 C    0  0  0  0  0  0  0  0  0  0  0  0
    3.1511   13.0898   27.5809 C    0  0  0  0  0  0  0  0  0  0  0  0
    2.0369   12.2901   27.9100 C    0  0  0  0  0  0  0  0  0  0  0  0
    0.9084   12.2438   27.0808 C    0  0  0  0  0  0  0  0  0  0  0  0
    0.8837   12.9798   25.8924 C    0  0  0  0  0  0  0  0  0  0  0  0
    1.9753   13.7816   25.5451 C    0  0  0  0  0  0  0  0  0  0  0  0
    3.1006   13.8684   26.3887 C    0  0  0  0  0  0  0  0  0  0  0  0
    4.2357   14.8128   25.9893 C    0  0  0  0  0  0  0  0  0  0  0  0
    5.5759   14.1187   25.6559 C    0  0  0  0  0  0  0  0  0  0  0  0
    7.7128   11.7465   25.4275 C    0  0  0  0  0  0  0  0  0  0  0  0
    8.5771   12.9703   25.0540 C    0  0  0  0  0  0  0  0  0  0  0  0
    8.2915   13.5447   23.6534 C    0  0  0  0  0  0  0  0  0  0  0  0
    7.4824   12.9879   22.9221 O    0  0  0  0  0  0  0  0  0  0  0  0
    8.9981   14.6561   23.2308 N    0  0  0  0  0  0  0  0  0  0  0  0
   10.0036   15.4480   24.0308 C    0  0  0  0  0  0  0  0  0  0  0  0
   11.4041   15.5125   23.3603 C    0  0  0  0  0  0  0  0  0  0  0  0
   11.3238   16.0368   21.9011 C    0  0  0  0  0  0  0  0  0  0  0  0
   10.2562   15.2295   21.1125 C    0  0  0  0  0  0  0  0  0  0  0  0
   10.1720   15.6854   19.6604 C    0  0  0  0  0  0  0  0  0  0  0  0
   10.6831   14.8082   18.7796 N    0  0  0  0  0  0  0  0  0  0  0  0
    9.6370   16.7156   19.2839 O    0  0  0  0  0  0  0  0  0  0  0  0
    8.8813   15.2373   21.8499 C    0  0  0  0  0  0  0  0  0  0  0  0
    8.6811    8.1278   22.9663 H    0  0  0  0  0  0  0  0  0  0  0  0
    9.6515    7.8555   24.4476 H    0  0  0  0  0  0  0  0  0  0  0  0
   10.4612    8.2273   22.9058 H    0  0  0  0  0  0  0  0  0  0  0  0
    5.6649    8.6775   26.4238 H    0  0  0  0  0  0  0  0  0  0  0  0
    6.0253   14.4348   28.2996 H    0  0  0  0  0  0  0  0  0  0  0  0
    6.5074   12.8237   28.6956 H    0  0  0  0  0  0  0  0  0  0  0  0
    4.1136   13.7592   29.3817 H    0  0  0  0  0  0  0  0  0  0  0  0
    4.3898   12.0842   29.0294 H    0  0  0  0  0  0  0  0  0  0  0  0
    2.0359   11.6982   28.8220 H    0  0  0  0  0  0  0  0  0  0  0  0
    0.0547   11.6303   27.3576 H    0  0  0  0  0  0  0  0  0  0  0  0
    0.0139   12.9340   25.2408 H    0  0  0  0  0  0  0  0  0  0  0  0
    1.9323   14.3470   24.6166 H    0  0  0  0  0  0  0  0  0  0  0  0
    4.3793   15.5531   26.7824 H    0  0  0  0  0  0  0  0  0  0  0  0
    3.9524   15.4114   25.1190 H    0  0  0  0  0  0  0  0  0  0  0  0
    6.3357   14.8967   25.5581 H    0  0  0  0  0  0  0  0  0  0  0  0
    5.4597   13.6754   24.6624 H    0  0  0  0  0  0  0  0  0  0  0  0
    9.6359   12.7113   25.1290 H    0  0  0  0  0  0  0  0  0  0  0  0
    8.4568   13.7466   25.8121 H    0  0  0  0  0  0  0  0  0  0  0  0
   10.1589   15.0780   25.0418 H    0  0  0  0  0  0  0  0  0  0  0  0
    9.6270   16.4690   24.1690 H    0  0  0  0  0  0  0  0  0  0  0  0
   11.8660   14.5202   23.3691 H    0  0  0  0  0  0  0  0  0  0  0  0
   12.0591   16.1670   23.9417 H    0  0  0  0  0  0  0  0  0  0  0  0
   12.3005   15.9227   21.4236 H    0  0  0  0  0  0  0  0  0  0  0  0
   11.0845   17.1050   21.8925 H    0  0  0  0  0  0  0  0  0  0  0  0
   10.5909   14.1825   21.1262 H    0  0  0  0  0  0  0  0  0  0  0  0
   10.9623   13.8758   19.0808 H    0  0  0  0  0  0  0  0  0  0  0  0
   10.6872   15.0393   17.7961 H    0  0  0  0  0  0  0  0  0  0  0  0
    8.1601   14.6968   21.2314 H    0  0  0  0  0  0  0  0  0  0  0  0
    8.4887   16.2585   21.9206 H    0  0  0  0  0  0  0  0  0  0  0  0
 19 20  1  0  0  0  0
  7 19  2  0  0  0  0
  6  7  1  0  0  0  0
  5  6  2  0  0  0  0
  4  5  1  0  0  0  0
  3  4  2  0  0  0  0
  2  3  1  0  0  0  0
  1  2  1  0  0  0  0
 32  1  1  0  0  0  0
 33  1  1  0  0  0  0
 34  1  1  0  0  0  0
 35  5  1  0  0  0  0
  8  7  1  0  0  0  0
  9  8  1  0  0  0  0
 10  9  1  0  0  0  0
 36  9  1  0  0  0  0
 37  9  1  0  0  0  0
 11 10  1  0  0  0  0
 38 10  1  0  0  0  0
 39 10  1  0  0  0  0
 12 11  2  0  0  0  0
 13 12  1  0  0  0  0
 40 12  1  0  0  0  0
 14 13  2  0  0  0  0
 41 13  1  0  0  0  0
 15 14  1  0  0  0  0
 42 14  1  0  0  0  0
 16 15  2  0  0  0  0
 43 15  1  0  0  0  0
 17 16  1  0  0  0  0
 18 17  1  0  0  0  0
 44 17  1  0  0  0  0
 45 17  1  0  0  0  0
 46 18  1  0  0  0  0
 47 18  1  0  0  0  0
 21 20  1  0  0  0  0
 48 20  1  0  0  0  0
 49 20  1  0  0  0  0
 22 21  2  0  0  0  0
 23 21  1  0  0  0  0
 24 23  1  0  0  0  0
 25 24  1  0  0  0  0
 50 24  1  0  0  0  0
 51 24  1  0  0  0  0
 26 25  1  0  0  0  0
 52 25  1  0  0  0  0
 53 25  1  0  0  0  0
 27 26  1  0  0  0  0
 54 26  1  0  0  0  0
 55 26  1  0  0  0  0
 28 27  1  0  0  0  0
 31 27  1  0  0  0  0
 56 27  1  0  0  0  0
 29 28  1  0  0  0  0
 30 28  2  0  0  0  0
 57 29  1  0  0  0  0
 58 29  1  0  0  0  0
 59 31  1  0  0  0  0
 60 31  1  0  0  0  0
 16 11  1  0  0  0  0
 18  8  1  0  0  0  0
 19  3  1  0  0  0  0
 31 23  1  0  0  0  0
M  END
>  <FittedScore>
-37.83

$$$$
