A71EV2A-x7175a_best-RMSD
  FITTED

 57 59     0  0  0  0  0  0  0999 V2000
    9.7819   16.6202   19.3868 O    0  0  0  0  0  0  0  0  0  0  0  0
   10.2517   15.5624   19.7568 C    0  0  0  0  0  0  0  0  0  0  0  0
   10.8099   14.7191   18.8653 N    0  0  0  0  0  0  0  0  0  0  0  0
   10.2496   15.1018   21.2120 C    0  0  0  0  0  0  0  0  0  0  0  0
   11.2914   15.9011   22.0482 C    0  0  0  0  0  0  0  0  0  0  0  0
   11.2569   15.4444   23.5321 C    0  0  0  0  0  0  0  0  0  0  0  0
    9.8167   15.4627   24.1155 C    0  0  0  0  0  0  0  0  0  0  0  0
    8.8351   15.2010   21.8714 C    0  0  0  0  0  0  0  0  0  0  0  0
    8.8406   14.6815   23.2821 N    0  0  0  0  0  0  0  0  0  0  0  0
    8.1188   13.5765   23.6888 C    0  0  0  0  0  0  0  0  0  0  0  0
    7.3257   13.0439   22.9337 O    0  0  0  0  0  0  0  0  0  0  0  0
    8.3931   12.9400   25.0660 C    0  0  0  0  0  0  0  0  0  0  0  0
    7.5899   11.6580   25.3816 C    0  0  0  0  0  0  0  0  0  0  0  0
    8.0829   10.4023   24.9192 C    0  0  0  0  0  0  0  0  0  0  0  0
    9.5163   10.2731   23.8587 S    0  0  0  0  0  0  0  0  0  0  0  0
    9.6725    8.5265   23.3628 C    0  0  0  0  0  0  0  0  0  0  0  0
    7.4679    9.2390   25.2529 N    0  0  0  0  0  0  0  0  0  0  0  0
    6.3649    9.2935   26.0339 C    0  0  0  0  0  0  0  0  0  0  0  0
    5.8013   10.4388   26.4716 N    0  0  0  0  0  0  0  0  0  0  0  0
    6.3739   11.6421   26.1521 C    0  0  0  0  0  0  0  0  0  0  0  0
    5.6927   12.7809   26.6129 N    0  0  0  0  0  0  0  0  0  0  0  0
    5.3800   13.9289   25.7302 C    0  0  0  0  0  0  0  0  0  0  0  0
    4.1380   14.6252   26.3019 C    0  0  0  0  0  0  0  0  0  0  0  0
    4.0184   14.1323   27.7461 C    0  0  0  0  0  0  0  0  0  0  0  0
    4.7321   12.7623   27.7587 C    0  0  0  0  0  0  0  0  0  0  0  0
    5.3806   12.4198   29.1341 C    0  0  0  0  0  0  0  0  0  0  0  0
    6.5122   13.2887   29.4127 O    0  0  0  0  0  0  0  0  0  0  0  0
    7.0333   13.2853   30.7672 C    0  0  0  0  0  0  0  0  0  0  0  0
   11.1245   13.7964   19.1640 H    0  0  0  0  0  0  0  0  0  0  0  0
   10.7792   14.9403   17.8757 H    0  0  0  0  0  0  0  0  0  0  0  0
   10.5420   14.0437   21.2495 H    0  0  0  0  0  0  0  0  0  0  0  0
   12.2924   15.7430   21.6418 H    0  0  0  0  0  0  0  0  0  0  0  0
   11.0887   16.9765   21.9852 H    0  0  0  0  0  0  0  0  0  0  0  0
   11.6771   14.4379   23.6140 H    0  0  0  0  0  0  0  0  0  0  0  0
   11.8972   16.1020   24.1257 H    0  0  0  0  0  0  0  0  0  0  0  0
    9.8766   15.1254   25.1502 H    0  0  0  0  0  0  0  0  0  0  0  0
    9.4684   16.4986   24.1863 H    0  0  0  0  0  0  0  0  0  0  0  0
    8.1205   14.6816   21.2288 H    0  0  0  0  0  0  0  0  0  0  0  0
    8.4951   16.2423   21.8776 H    0  0  0  0  0  0  0  0  0  0  0  0
    9.4619   12.7408   25.1597 H    0  0  0  0  0  0  0  0  0  0  0  0
    8.2214   13.6620   25.8639 H    0  0  0  0  0  0  0  0  0  0  0  0
    9.8029    7.8979   24.2457 H    0  0  0  0  0  0  0  0  0  0  0  0
   10.5453    8.4063   22.7183 H    0  0  0  0  0  0  0  0  0  0  0  0
    8.7823    8.2128   22.8125 H    0  0  0  0  0  0  0  0  0  0  0  0
    5.8924    8.3554   26.3135 H    0  0  0  0  0  0  0  0  0  0  0  0
    6.1866   14.6624   25.6997 H    0  0  0  0  0  0  0  0  0  0  0  0
    5.1807   13.6114   24.7027 H    0  0  0  0  0  0  0  0  0  0  0  0
    4.2398   15.7137   26.2656 H    0  0  0  0  0  0  0  0  0  0  0  0
    3.2469   14.3502   25.7301 H    0  0  0  0  0  0  0  0  0  0  0  0
    4.4846   14.8541   28.4252 H    0  0  0  0  0  0  0  0  0  0  0  0
    2.9697   14.0295   28.0377 H    0  0  0  0  0  0  0  0  0  0  0  0
    3.9457   12.0176   27.5888 H    0  0  0  0  0  0  0  0  0  0  0  0
    4.6251   12.5231   29.9189 H    0  0  0  0  0  0  0  0  0  0  0  0
    5.7170   11.3791   29.1594 H    0  0  0  0  0  0  0  0  0  0  0  0
    7.3685   12.2836   31.0485 H    0  0  0  0  0  0  0  0  0  0  0  0
    6.2672   13.6225   31.4696 H    0  0  0  0  0  0  0  0  0  0  0  0
    7.8812   13.9705   30.8240 H    0  0  0  0  0  0  0  0  0  0  0  0
 10 12  1  0  0  0  0
  9 10  1  0  0  0  0
  7  9  1  0  0  0  0
  6  7  1  0  0  0  0
  5  6  1  0  0  0  0
  4  5  1  0  0  0  0
  2  4  1  0  0  0  0
  1  2  2  0  0  0  0
  3  2  1  0  0  0  0
 29  3  1  0  0  0  0
 30  3  1  0  0  0  0
 31  4  1  0  0  0  0
 32  5  1  0  0  0  0
 33  5  1  0  0  0  0
 34  6  1  0  0  0  0
 35  6  1  0  0  0  0
 36  7  1  0  0  0  0
 37  7  1  0  0  0  0
  8  4  1  0  0  0  0
 38  8  1  0  0  0  0
 39  8  1  0  0  0  0
 11 10  2  0  0  0  0
 40 12  1  0  0  0  0
 41 12  1  0  0  0  0
 13 12  1  0  0  0  0
 14 13  1  0  0  0  0
 15 14  1  0  0  0  0
 16 15  1  0  0  0  0
 42 16  1  0  0  0  0
 43 16  1  0  0  0  0
 44 16  1  0  0  0  0
 17 14  2  0  0  0  0
 18 17  1  0  0  0  0
 45 18  1  0  0  0  0
 19 18  2  0  0  0  0
 20 19  1  0  0  0  0
 21 20  1  0  0  0  0
 22 21  1  0  0  0  0
 46 22  1  0  0  0  0
 47 22  1  0  0  0  0
 23 22  1  0  0  0  0
 48 23  1  0  0  0  0
 49 23  1  0  0  0  0
 24 23  1  0  0  0  0
 50 24  1  0  0  0  0
 51 24  1  0  0  0  0
 25 24  1  0  0  0  0
 26 25  1  0  0  0  0
 52 25  1  0  0  0  0
 53 26  1  0  0  0  0
 54 26  1  0  0  0  0
 27 26  1  0  0  0  0
 28 27  1  0  0  0  0
 55 28  1  0  0  0  0
 56 28  1  0  0  0  0
 57 28  1  0  0  0  0
  9  8  1  0  0  0  0
 20 13  2  0  0  0  0
 25 21  1  0  0  0  0
M  END
>  <FittedScore>
-34.93

$$$$
