A71EV2A-x7175a_lowest-energy
  FITTED

 57 59     0  0  0  0  0  0  0999 V2000
    9.8126   16.6473   19.4050 O    0  0  0  0  0  0  0  0  0  0  0  0
   10.2497   15.5634   19.7372 C    0  0  0  0  0  0  0  0  0  0  0  0
   10.7904   14.7222   18.8295 N    0  0  0  0  0  0  0  0  0  0  0  0
   10.2110   15.0413   21.1721 C    0  0  0  0  0  0  0  0  0  0  0  0
   11.3693   15.6616   22.0128 C    0  0  0  0  0  0  0  0  0  0  0  0
   11.2896   15.2270   23.5026 C    0  0  0  0  0  0  0  0  0  0  0  0
    9.8643   15.4443   24.0813 C    0  0  0  0  0  0  0  0  0  0  0  0
    8.8245   15.2538   21.8635 C    0  0  0  0  0  0  0  0  0  0  0  0
    8.8173   14.7316   23.2714 N    0  0  0  0  0  0  0  0  0  0  0  0
    8.0727   13.6364   23.6729 C    0  0  0  0  0  0  0  0  0  0  0  0
    7.3234   13.0727   22.8973 O    0  0  0  0  0  0  0  0  0  0  0  0
    8.3009   13.0209   25.0641 C    0  0  0  0  0  0  0  0  0  0  0  0
    7.5432   11.7025   25.3604 C    0  0  0  0  0  0  0  0  0  0  0  0
    8.0788   10.4720   24.8784 C    0  0  0  0  0  0  0  0  0  0  0  0
    9.5041   10.4112   23.7980 S    0  0  0  0  0  0  0  0  0  0  0  0
    9.7171    8.6679   23.2956 C    0  0  0  0  0  0  0  0  0  0  0  0
    7.5183    9.2789   25.2081 N    0  0  0  0  0  0  0  0  0  0  0  0
    6.4305    9.2856   26.0142 C    0  0  0  0  0  0  0  0  0  0  0  0
    5.8237   10.4021   26.4700 N    0  0  0  0  0  0  0  0  0  0  0  0
    6.3363   11.6268   26.1397 C    0  0  0  0  0  0  0  0  0  0  0  0
    5.5939   12.7296   26.5842 N    0  0  0  0  0  0  0  0  0  0  0  0
    5.2214   13.8401   25.6788 C    0  0  0  0  0  0  0  0  0  0  0  0
    3.8631   14.3609   26.1653 C    0  0  0  0  0  0  0  0  0  0  0  0
    3.8020   13.9722   27.6479 C    0  0  0  0  0  0  0  0  0  0  0  0
    4.6260   12.6673   27.7246 C    0  0  0  0  0  0  0  0  0  0  0  0
    5.3091   12.4240   29.1022 C    0  0  0  0  0  0  0  0  0  0  0  0
    6.3729   13.3848   29.3022 O    0  0  0  0  0  0  0  0  0  0  0  0
    6.9386   13.4965   30.6322 C    0  0  0  0  0  0  0  0  0  0  0  0
   11.0495   13.7802   19.1129 H    0  0  0  0  0  0  0  0  0  0  0  0
   10.7665   14.9582   17.8441 H    0  0  0  0  0  0  0  0  0  0  0  0
   10.3801   13.9564   21.1478 H    0  0  0  0  0  0  0  0  0  0  0  0
   12.3292   15.3397   21.6030 H    0  0  0  0  0  0  0  0  0  0  0  0
   11.3402   16.7531   21.9455 H    0  0  0  0  0  0  0  0  0  0  0  0
   11.5714   14.1735   23.5967 H    0  0  0  0  0  0  0  0  0  0  0  0
   12.0107   15.8010   24.0846 H    0  0  0  0  0  0  0  0  0  0  0  0
    9.8663   15.1651   25.1368 H    0  0  0  0  0  0  0  0  0  0  0  0
    9.6383   16.5163   24.0949 H    0  0  0  0  0  0  0  0  0  0  0  0
    8.0582   14.7937   21.2381 H    0  0  0  0  0  0  0  0  0  0  0  0
    8.5705   16.3183   21.8776 H    0  0  0  0  0  0  0  0  0  0  0  0
    9.3708   12.8543   25.2071 H    0  0  0  0  0  0  0  0  0  0  0  0
    8.0660   13.7487   25.8418 H    0  0  0  0  0  0  0  0  0  0  0  0
    9.8533    8.0476   24.1823 H    0  0  0  0  0  0  0  0  0  0  0  0
   10.6050    8.5784   22.6646 H    0  0  0  0  0  0  0  0  0  0  0  0
    8.8442    8.3325   22.7263 H    0  0  0  0  0  0  0  0  0  0  0  0
    6.0056    8.3263   26.3004 H    0  0  0  0  0  0  0  0  0  0  0  0
    5.9455   14.6563   25.7081 H    0  0  0  0  0  0  0  0  0  0  0  0
    5.1303   13.5051   24.6414 H    0  0  0  0  0  0  0  0  0  0  0  0
    3.7885   15.4445   26.0325 H    0  0  0  0  0  0  0  0  0  0  0  0
    3.0427   13.8884   25.6156 H    0  0  0  0  0  0  0  0  0  0  0  0
    4.2249   14.7732   28.2676 H    0  0  0  0  0  0  0  0  0  0  0  0
    2.7689   13.8144   27.9684 H    0  0  0  0  0  0  0  0  0  0  0  0
    3.8964   11.8594   27.5861 H    0  0  0  0  0  0  0  0  0  0  0  0
    4.5632   12.5073   29.8973 H    0  0  0  0  0  0  0  0  0  0  0  0
    5.7328   11.4166   29.1530 H    0  0  0  0  0  0  0  0  0  0  0  0
    7.4570   12.5749   30.9016 H    0  0  0  0  0  0  0  0  0  0  0  0
    6.1592   13.7124   31.3675 H    0  0  0  0  0  0  0  0  0  0  0  0
    7.6562   14.3175   30.6466 H    0  0  0  0  0  0  0  0  0  0  0  0
 10 12  1  0  0  0  0
  9 10  1  0  0  0  0
  7  9  1  0  0  0  0
  6  7  1  0  0  0  0
  5  6  1  0  0  0  0
  4  5  1  0  0  0  0
  2  4  1  0  0  0  0
  1  2  2  0  0  0  0
  3  2  1  0  0  0  0
 29  3  1  0  0  0  0
 30  3  1  0  0  0  0
 31  4  1  0  0  0  0
 32  5  1  0  0  0  0
 33  5  1  0  0  0  0
 34  6  1  0  0  0  0
 35  6  1  0  0  0  0
 36  7  1  0  0  0  0
 37  7  1  0  0  0  0
  8  4  1  0  0  0  0
 38  8  1  0  0  0  0
 39  8  1  0  0  0  0
 11 10  2  0  0  0  0
 40 12  1  0  0  0  0
 41 12  1  0  0  0  0
 13 12  1  0  0  0  0
 14 13  1  0  0  0  0
 15 14  1  0  0  0  0
 16 15  1  0  0  0  0
 42 16  1  0  0  0  0
 43 16  1  0  0  0  0
 44 16  1  0  0  0  0
 17 14  2  0  0  0  0
 18 17  1  0  0  0  0
 45 18  1  0  0  0  0
 19 18  2  0  0  0  0
 20 19  1  0  0  0  0
 21 20  1  0  0  0  0
 22 21  1  0  0  0  0
 46 22  1  0  0  0  0
 47 22  1  0  0  0  0
 23 22  1  0  0  0  0
 48 23  1  0  0  0  0
 49 23  1  0  0  0  0
 24 23  1  0  0  0  0
 50 24  1  0  0  0  0
 51 24  1  0  0  0  0
 25 24  1  0  0  0  0
 26 25  1  0  0  0  0
 52 25  1  0  0  0  0
 53 26  1  0  0  0  0
 54 26  1  0  0  0  0
 27 26  1  0  0  0  0
 28 27  1  0  0  0  0
 55 28  1  0  0  0  0
 56 28  1  0  0  0  0
 57 28  1  0  0  0  0
  9  8  1  0  0  0  0
 20 13  2  0  0  0  0
 25 21  1  0  0  0  0
M  END
>  <FittedScore>
-35.84

$$$$
