A71EV2A-x4947a_best-RMSD
  FITTED

 38 40     0  0  0  0  0  0  0999 V2000
    9.9570   16.6279   19.0183 O    0  0  0  0  0  0  0  0  0  0  0  0
   10.4619   15.6911   19.6022 C    0  0  0  0  0  0  0  0  0  0  0  0
   10.9981   14.7178   18.8397 N    0  0  0  0  0  0  0  0  0  0  0  0
   10.0416   15.4297   21.0420 C    0  0  0  0  0  0  0  0  0  0  0  0
   11.0147   16.3612   21.7508 C    0  0  0  0  0  0  0  0  0  0  0  0
   11.2111   14.8746   21.7852 C    0  0  0  0  0  0  0  0  0  0  0  0
   10.6290   14.0467   22.9179 C    0  0  0  0  0  0  0  0  0  0  0  0
    8.7570   14.8323   21.5534 C    0  0  0  0  0  0  0  0  0  0  0  0
    9.1369   14.2032   22.8539 N    0  0  0  0  0  0  0  0  0  0  0  0
    8.2120   13.8174   23.8004 C    0  0  0  0  0  0  0  0  0  0  0  0
    7.0203   13.8841   23.5717 O    0  0  0  0  0  0  0  0  0  0  0  0
    8.6567   13.2493   25.1619 C    0  0  0  0  0  0  0  0  0  0  0  0
    7.7559   12.0771   25.5961 C    0  0  0  0  0  0  0  0  0  0  0  0
    7.8251   10.8066   24.9673 C    0  0  0  0  0  0  0  0  0  0  0  0
    9.0685   10.5067   23.7073 S    0  0  0  0  0  0  0  0  0  0  0  0
    9.2098    8.7134   23.4653 C    0  0  0  0  0  0  0  0  0  0  0  0
    6.7563   12.3191   26.5603 C    0  0  0  0  0  0  0  0  0  0  0  0
    5.8505   11.3165   26.9234 C    0  0  0  0  0  0  0  0  0  0  0  0
    5.9186   10.0617   26.3077 C    0  0  0  0  0  0  0  0  0  0  0  0
    6.8880    9.8150   25.3261 C    0  0  0  0  0  0  0  0  0  0  0  0
   11.1259   13.7835   19.2119 H    0  0  0  0  0  0  0  0  0  0  0  0
   11.1497   14.8886   17.8469 H    0  0  0  0  0  0  0  0  0  0  0  0
   11.7727   16.9454   21.2250 H    0  0  0  0  0  0  0  0  0  0  0  0
   10.6591   16.8559   22.6501 H    0  0  0  0  0  0  0  0  0  0  0  0
   12.0950   14.4559   21.3047 H    0  0  0  0  0  0  0  0  0  0  0  0
   10.8834   12.9906   22.8022 H    0  0  0  0  0  0  0  0  0  0  0  0
   11.0207   14.3973   23.8750 H    0  0  0  0  0  0  0  0  0  0  0  0
    8.3703   14.0735   20.8679 H    0  0  0  0  0  0  0  0  0  0  0  0
    7.9955   15.6063   21.6754 H    0  0  0  0  0  0  0  0  0  0  0  0
    9.6939   12.9134   25.1860 H    0  0  0  0  0  0  0  0  0  0  0  0
    8.6175   14.0596   25.8949 H    0  0  0  0  0  0  0  0  0  0  0  0
    9.3729    8.2243   24.4290 H    0  0  0  0  0  0  0  0  0  0  0  0
   10.0600    8.5085   22.8106 H    0  0  0  0  0  0  0  0  0  0  0  0
    8.3033    8.3286   22.9913 H    0  0  0  0  0  0  0  0  0  0  0  0
    6.6628   13.2975   27.0264 H    0  0  0  0  0  0  0  0  0  0  0  0
    5.0866   11.5185   27.6661 H    0  0  0  0  0  0  0  0  0  0  0  0
    5.2005    9.2892   26.5716 H    0  0  0  0  0  0  0  0  0  0  0  0
    6.8713    8.8456   24.8396 H    0  0  0  0  0  0  0  0  0  0  0  0
  7  9  1  0  0  0  0
  6  7  1  0  0  0  0
  5  6  1  0  0  0  0
  4  5  1  0  0  0  0
  2  4  1  0  0  0  0
  1  2  2  0  0  0  0
  3  2  1  0  0  0  0
 21  3  1  0  0  0  0
 22  3  1  0  0  0  0
 23  5  1  0  0  0  0
 24  5  1  0  0  0  0
 25  6  1  0  0  0  0
 26  7  1  0  0  0  0
 27  7  1  0  0  0  0
  8  4  1  0  0  0  0
 28  8  1  0  0  0  0
 29  8  1  0  0  0  0
 10  9  1  0  0  0  0
 11 10  2  0  0  0  0
 12 10  1  0  0  0  0
 30 12  1  0  0  0  0
 31 12  1  0  0  0  0
 13 12  1  0  0  0  0
 14 13  1  0  0  0  0
 20 14  2  0  0  0  0
 15 14  1  0  0  0  0
 16 15  1  0  0  0  0
 32 16  1  0  0  0  0
 33 16  1  0  0  0  0
 34 16  1  0  0  0  0
 17 13  2  0  0  0  0
 35 17  1  0  0  0  0
 18 17  1  0  0  0  0
 36 18  1  0  0  0  0
 19 18  2  0  0  0  0
 37 19  1  0  0  0  0
 38 20  1  0  0  0  0
  6  4  1  0  0  0  0
  9  8  1  0  0  0  0
 20 19  1  0  0  0  0
M  END
>  <FittedScore>
-28.71

$$$$
