A71EV2A-x4846a_best-RMSD
  FITTED

 37 38     0  0  0  0  0  0  0999 V2000
    9.8865   16.6078   19.6965 O    0  0  0  0  0  0  0  0  0  0  0  0
   10.3609   15.5149   19.9416 C    0  0  0  0  0  0  0  0  0  0  0  0
   10.8446   14.7488   18.9447 N    0  0  0  0  0  0  0  0  0  0  0  0
   10.1569   14.7942   21.2748 C    0  0  0  0  0  0  0  0  0  0  0  0
   11.0698   15.3131   22.4171 C    0  0  0  0  0  0  0  0  0  0  0  0
   10.7996   14.5150   23.7268 C    0  0  0  0  0  0  0  0  0  0  0  0
    9.2789   14.4054   24.0689 C    0  0  0  0  0  0  0  0  0  0  0  0
    8.6707   14.8343   21.7107 C    0  0  0  0  0  0  0  0  0  0  0  0
    8.4001   13.9929   22.9165 N    0  0  0  0  0  0  0  0  0  0  0  0
    7.2899   13.1817   22.9782 C    0  0  0  0  0  0  0  0  0  0  0  0
    6.4292   13.2235   22.1165 O    0  0  0  0  0  0  0  0  0  0  0  0
    7.0516   12.3128   24.1914 C    0  0  0  0  0  0  0  0  0  0  0  0
    7.8764   11.2117   24.5335 C    0  0  0  0  0  0  0  0  0  0  0  0
    9.3721   10.8475   23.6445 S    0  0  0  0  0  0  0  0  0  0  0  0
    9.3081    9.0554   23.3337 C    0  0  0  0  0  0  0  0  0  0  0  0
    5.8891   12.5491   24.9494 C    0  0  0  0  0  0  0  0  0  0  0  0
    5.5436   11.7157   26.0205 C    0  0  0  0  0  0  0  0  0  0  0  0
    6.3294   10.5997   26.3180 C    0  0  0  0  0  0  0  0  0  0  0  0
    7.4874   10.3556   25.5779 C    0  0  0  0  0  0  0  0  0  0  0  0
   11.0142   13.7574   19.1123 H    0  0  0  0  0  0  0  0  0  0  0  0
   10.8141   15.1010   17.9934 H    0  0  0  0  0  0  0  0  0  0  0  0
   10.3998   13.7318   21.1378 H    0  0  0  0  0  0  0  0  0  0  0  0
   12.1181   15.1972   22.1287 H    0  0  0  0  0  0  0  0  0  0  0  0
   10.8934   16.3790   22.5854 H    0  0  0  0  0  0  0  0  0  0  0  0
   11.2196   13.5091   23.6315 H    0  0  0  0  0  0  0  0  0  0  0  0
   11.3282   14.9937   24.5541 H    0  0  0  0  0  0  0  0  0  0  0  0
    9.1892   13.7308   24.9191 H    0  0  0  0  0  0  0  0  0  0  0  0
    8.9317   15.3725   24.4418 H    0  0  0  0  0  0  0  0  0  0  0  0
    8.0842   14.5138   20.8461 H    0  0  0  0  0  0  0  0  0  0  0  0
    8.3520   15.8607   21.9191 H    0  0  0  0  0  0  0  0  0  0  0  0
    9.5407    8.4975   24.2408 H    0  0  0  0  0  0  0  0  0  0  0  0
   10.0504    8.8024   22.5751 H    0  0  0  0  0  0  0  0  0  0  0  0
    8.3168    8.7799   22.9678 H    0  0  0  0  0  0  0  0  0  0  0  0
    5.2502   13.3939   24.7120 H    0  0  0  0  0  0  0  0  0  0  0  0
    4.6506   11.9219   26.6007 H    0  0  0  0  0  0  0  0  0  0  0  0
    6.0503    9.9263   27.1248 H    0  0  0  0  0  0  0  0  0  0  0  0
    8.0985    9.5020   25.8544 H    0  0  0  0  0  0  0  0  0  0  0  0
  7  9  1  0  0  0  0
  6  7  1  0  0  0  0
  5  6  1  0  0  0  0
  4  5  1  0  0  0  0
  2  4  1  0  0  0  0
  1  2  2  0  0  0  0
  3  2  1  0  0  0  0
 20  3  1  0  0  0  0
 21  3  1  0  0  0  0
 22  4  1  0  0  0  0
 23  5  1  0  0  0  0
 24  5  1  0  0  0  0
 25  6  1  0  0  0  0
 26  6  1  0  0  0  0
 27  7  1  0  0  0  0
 28  7  1  0  0  0  0
  8  4  1  0  0  0  0
 29  8  1  0  0  0  0
 30  8  1  0  0  0  0
 10  9  1  0  0  0  0
 11 10  2  0  0  0  0
 12 10  1  0  0  0  0
 13 12  1  0  0  0  0
 19 13  2  0  0  0  0
 14 13  1  0  0  0  0
 15 14  1  0  0  0  0
 31 15  1  0  0  0  0
 32 15  1  0  0  0  0
 33 15  1  0  0  0  0
 16 12  2  0  0  0  0
 34 16  1  0  0  0  0
 17 16  1  0  0  0  0
 35 17  1  0  0  0  0
 18 17  2  0  0  0  0
 36 18  1  0  0  0  0
 37 19  1  0  0  0  0
  9  8  1  0  0  0  0
 19 18  1  0  0  0  0
M  END
>  <FittedScore>
-34.40

$$$$
