A71EV2A-x4846a_lowest-energy
  FITTED

 37 38     0  0  0  0  0  0  0999 V2000
    9.8612   16.6606   19.7017 O    0  0  0  0  0  0  0  0  0  0  0  0
   10.3790   15.5958   19.9710 C    0  0  0  0  0  0  0  0  0  0  0  0
   10.8254   14.8058   18.9746 N    0  0  0  0  0  0  0  0  0  0  0  0
   10.1569   14.8890   21.3052 C    0  0  0  0  0  0  0  0  0  0  0  0
   10.9697   15.4956   22.4819 C    0  0  0  0  0  0  0  0  0  0  0  0
   10.6650   14.7094   23.7910 C    0  0  0  0  0  0  0  0  0  0  0  0
    9.1353   14.5420   24.0555 C    0  0  0  0  0  0  0  0  0  0  0  0
    8.6467   14.8625   21.6533 C    0  0  0  0  0  0  0  0  0  0  0  0
    8.3390   14.0613   22.8716 N    0  0  0  0  0  0  0  0  0  0  0  0
    7.2416   13.2341   22.9059 C    0  0  0  0  0  0  0  0  0  0  0  0
    6.4187   13.2364   22.0056 O    0  0  0  0  0  0  0  0  0  0  0  0
    6.9649   12.4186   24.1462 C    0  0  0  0  0  0  0  0  0  0  0  0
    7.7834   11.3369   24.5611 C    0  0  0  0  0  0  0  0  0  0  0  0
    9.2832   10.9180   23.6830 S    0  0  0  0  0  0  0  0  0  0  0  0
    9.2281    9.1094   23.4759 C    0  0  0  0  0  0  0  0  0  0  0  0
    5.7762   12.6842   24.8560 C    0  0  0  0  0  0  0  0  0  0  0  0
    5.4089   11.9166   25.9636 C    0  0  0  0  0  0  0  0  0  0  0  0
    6.1989   10.8276   26.3529 C    0  0  0  0  0  0  0  0  0  0  0  0
    7.3769   10.5428   25.6502 C    0  0  0  0  0  0  0  0  0  0  0  0
   10.8392   15.1609   18.0263 H    0  0  0  0  0  0  0  0  0  0  0  0
   10.9274   13.8062   19.1338 H    0  0  0  0  0  0  0  0  0  0  0  0
   10.4742   13.8427   21.2078 H    0  0  0  0  0  0  0  0  0  0  0  0
   12.0381   15.4428   22.2554 H    0  0  0  0  0  0  0  0  0  0  0  0
   10.7272   16.5546   22.6128 H    0  0  0  0  0  0  0  0  0  0  0  0
   11.1267   13.7190   23.7348 H    0  0  0  0  0  0  0  0  0  0  0  0
   11.1247   15.2199   24.6387 H    0  0  0  0  0  0  0  0  0  0  0  0
    9.0309   13.8837   24.9163 H    0  0  0  0  0  0  0  0  0  0  0  0
    8.7204   15.5015   24.3728 H    0  0  0  0  0  0  0  0  0  0  0  0
    8.1284   14.4794   20.7683 H    0  0  0  0  0  0  0  0  0  0  0  0
    8.2602   15.8755   21.8065 H    0  0  0  0  0  0  0  0  0  0  0  0
   10.0172    8.8030   22.7876 H    0  0  0  0  0  0  0  0  0  0  0  0
    8.2611    8.8076   23.0711 H    0  0  0  0  0  0  0  0  0  0  0  0
    9.3956    8.6160   24.4342 H    0  0  0  0  0  0  0  0  0  0  0  0
    5.1228   13.4961   24.5431 H    0  0  0  0  0  0  0  0  0  0  0  0
    4.4891   12.1411   26.4984 H    0  0  0  0  0  0  0  0  0  0  0  0
    5.8988   10.2024   27.1891 H    0  0  0  0  0  0  0  0  0  0  0  0
    7.9748    9.6983   25.9810 H    0  0  0  0  0  0  0  0  0  0  0  0
  7  9  1  0  0  0  0
  6  7  1  0  0  0  0
  5  6  1  0  0  0  0
  4  5  1  0  0  0  0
  2  4  1  0  0  0  0
  1  2  2  0  0  0  0
  3  2  1  0  0  0  0
 20  3  1  0  0  0  0
 21  3  1  0  0  0  0
 22  4  1  0  0  0  0
 23  5  1  0  0  0  0
 24  5  1  0  0  0  0
 25  6  1  0  0  0  0
 26  6  1  0  0  0  0
 27  7  1  0  0  0  0
 28  7  1  0  0  0  0
  8  4  1  0  0  0  0
 29  8  1  0  0  0  0
 30  8  1  0  0  0  0
 10  9  1  0  0  0  0
 11 10  2  0  0  0  0
 12 10  1  0  0  0  0
 13 12  1  0  0  0  0
 19 13  2  0  0  0  0
 14 13  1  0  0  0  0
 15 14  1  0  0  0  0
 31 15  1  0  0  0  0
 32 15  1  0  0  0  0
 33 15  1  0  0  0  0
 16 12  2  0  0  0  0
 34 16  1  0  0  0  0
 17 16  1  0  0  0  0
 35 17  1  0  0  0  0
 18 17  2  0  0  0  0
 36 18  1  0  0  0  0
 37 19  1  0  0  0  0
  9  8  1  0  0  0  0
 19 18  1  0  0  0  0
M  END
>  <FittedScore>
-34.25

$$$$
