A71EV2A-x7031a_best-RMSD
  FITTED

 54 56     0  0  0  0  0  0  0999 V2000
    9.6735    8.5558   23.4504 C    0  0  0  0  0  0  0  0  0  0  0  0
    9.4804   10.3146   23.8781 S    0  0  0  0  0  0  0  0  0  0  0  0
    8.0865   10.4663   24.9923 C    0  0  0  0  0  0  0  0  0  0  0  0
    7.4444    9.3234   25.3586 N    0  0  0  0  0  0  0  0  0  0  0  0
    6.3626    9.4373   26.1710 C    0  0  0  0  0  0  0  0  0  0  0  0
    5.8487   10.6077   26.6135 N    0  0  0  0  0  0  0  0  0  0  0  0
    6.4521   11.7755   26.2465 C    0  0  0  0  0  0  0  0  0  0  0  0
    5.8138   12.9539   26.6311 N    0  0  0  0  0  0  0  0  0  0  0  0
    5.0664   13.1233   27.9015 C    0  0  0  0  0  0  0  0  0  0  0  0
    4.0863   14.2905   27.6609 C    0  0  0  0  0  0  0  0  0  0  0  0
    3.9778   14.4288   26.1338 C    0  0  0  0  0  0  0  0  0  0  0  0
    2.9059   13.5571   25.6499 O    0  0  0  0  0  0  0  0  0  0  0  0
    1.9354   14.0766   24.7020 C    0  0  0  0  0  0  0  0  0  0  0  0
    1.2128   15.0898   25.2447 F    0  0  0  0  0  0  0  0  0  0  0  0
    1.0527   13.1223   24.3791 F    0  0  0  0  0  0  0  0  0  0  0  0
    5.3397   13.9278   25.6248 C    0  0  0  0  0  0  0  0  0  0  0  0
    7.6494   11.7398   25.4602 C    0  0  0  0  0  0  0  0  0  0  0  0
    8.4723   13.0077   25.1301 C    0  0  0  0  0  0  0  0  0  0  0  0
    8.2555   13.5691   23.7111 C    0  0  0  0  0  0  0  0  0  0  0  0
    7.4385   13.0357   22.9760 O    0  0  0  0  0  0  0  0  0  0  0  0
    8.9911   14.6684   23.2989 N    0  0  0  0  0  0  0  0  0  0  0  0
   10.0222   15.4221   24.0933 C    0  0  0  0  0  0  0  0  0  0  0  0
   11.4296   15.3682   23.4390 C    0  0  0  0  0  0  0  0  0  0  0  0
   11.3943   15.8611   21.9680 C    0  0  0  0  0  0  0  0  0  0  0  0
   10.2668   15.1278   21.1794 C    0  0  0  0  0  0  0  0  0  0  0  0
   10.2141   15.6346   19.7413 C    0  0  0  0  0  0  0  0  0  0  0  0
   10.7639   14.7981   18.8345 N    0  0  0  0  0  0  0  0  0  0  0  0
    9.7006   16.6905   19.4094 O    0  0  0  0  0  0  0  0  0  0  0  0
    8.8928   15.2342   21.9173 C    0  0  0  0  0  0  0  0  0  0  0  0
    9.8379    7.9771   24.3604 H    0  0  0  0  0  0  0  0  0  0  0  0
   10.5345    8.4407   22.7947 H    0  0  0  0  0  0  0  0  0  0  0  0
    8.7813    8.1898   22.9338 H    0  0  0  0  0  0  0  0  0  0  0  0
    5.8488    8.5309   26.4731 H    0  0  0  0  0  0  0  0  0  0  0  0
    5.7398   13.3538   28.7296 H    0  0  0  0  0  0  0  0  0  0  0  0
    4.4805   12.2454   28.1916 H    0  0  0  0  0  0  0  0  0  0  0  0
    4.4835   15.2155   28.0872 H    0  0  0  0  0  0  0  0  0  0  0  0
    3.1116   14.1038   28.1254 H    0  0  0  0  0  0  0  0  0  0  0  0
    3.8145   15.4747   25.8490 H    0  0  0  0  0  0  0  0  0  0  0  0
    2.4487   14.4440   23.8036 H    0  0  0  0  0  0  0  0  0  0  0  0
    6.0293   14.7735   25.5489 H    0  0  0  0  0  0  0  0  0  0  0  0
    5.2438   13.4910   24.6294 H    0  0  0  0  0  0  0  0  0  0  0  0
    9.5292   12.7755   25.2775 H    0  0  0  0  0  0  0  0  0  0  0  0
    8.2864   13.7863   25.8717 H    0  0  0  0  0  0  0  0  0  0  0  0
   10.1256   15.0735   25.1209 H    0  0  0  0  0  0  0  0  0  0  0  0
    9.7098   16.4670   24.1877 H    0  0  0  0  0  0  0  0  0  0  0  0
   11.8075   14.3388   23.4688 H    0  0  0  0  0  0  0  0  0  0  0  0
   12.1316   15.9781   24.0107 H    0  0  0  0  0  0  0  0  0  0  0  0
   12.3581   15.6601   21.4951 H    0  0  0  0  0  0  0  0  0  0  0  0
   11.2415   16.9454   21.9411 H    0  0  0  0  0  0  0  0  0  0  0  0
   10.5198   14.0628   21.1673 H    0  0  0  0  0  0  0  0  0  0  0  0
   10.7549   15.0474   17.8550 H    0  0  0  0  0  0  0  0  0  0  0  0
   11.0238   13.8511   19.1238 H    0  0  0  0  0  0  0  0  0  0  0  0
    8.1268   14.7437   21.3072 H    0  0  0  0  0  0  0  0  0  0  0  0
    8.5674   16.2799   21.9734 H    0  0  0  0  0  0  0  0  0  0  0  0
 18 19  1  0  0  0  0
 17 18  1  0  0  0  0
  7 17  2  0  0  0  0
  6  7  1  0  0  0  0
  5  6  2  0  0  0  0
  4  5  1  0  0  0  0
  3  4  2  0  0  0  0
  2  3  1  0  0  0  0
  1  2  1  0  0  0  0
 30  1  1  0  0  0  0
 31  1  1  0  0  0  0
 32  1  1  0  0  0  0
 33  5  1  0  0  0  0
  8  7  1  0  0  0  0
  9  8  1  0  0  0  0
 10  9  1  0  0  0  0
 34  9  1  0  0  0  0
 35  9  1  0  0  0  0
 11 10  1  0  0  0  0
 36 10  1  0  0  0  0
 37 10  1  0  0  0  0
 12 11  1  0  0  0  0
 16 11  1  0  0  0  0
 38 11  1  0  0  0  0
 13 12  1  0  0  0  0
 14 13  1  0  0  0  0
 15 13  1  0  0  0  0
 39 13  1  0  0  0  0
 40 16  1  0  0  0  0
 41 16  1  0  0  0  0
 42 18  1  0  0  0  0
 43 18  1  0  0  0  0
 20 19  2  0  0  0  0
 21 19  1  0  0  0  0
 22 21  1  0  0  0  0
 23 22  1  0  0  0  0
 44 22  1  0  0  0  0
 45 22  1  0  0  0  0
 24 23  1  0  0  0  0
 46 23  1  0  0  0  0
 47 23  1  0  0  0  0
 25 24  1  0  0  0  0
 48 24  1  0  0  0  0
 49 24  1  0  0  0  0
 26 25  1  0  0  0  0
 29 25  1  0  0  0  0
 50 25  1  0  0  0  0
 27 26  1  0  0  0  0
 28 26  2  0  0  0  0
 51 27  1  0  0  0  0
 52 27  1  0  0  0  0
 53 29  1  0  0  0  0
 54 29  1  0  0  0  0
 16  8  1  0  0  0  0
 17  3  1  0  0  0  0
 29 21  1  0  0  0  0
M  END
>  <FittedScore>
-32.30

$$$$
