A71EV2A-x7031a_lowest-energy
  FITTED

 54 56     0  0  0  0  0  0  0999 V2000
    9.7778    8.5922   23.4133 C    0  0  0  0  0  0  0  0  0  0  0  0
    9.6281   10.3339   23.9223 S    0  0  0  0  0  0  0  0  0  0  0  0
    8.1756   10.4508   24.9610 C    0  0  0  0  0  0  0  0  0  0  0  0
    7.5526    9.2850   25.2772 N    0  0  0  0  0  0  0  0  0  0  0  0
    6.4416    9.3391   26.0504 C    0  0  0  0  0  0  0  0  0  0  0  0
    5.8835   10.4798   26.5172 N    0  0  0  0  0  0  0  0  0  0  0  0
    6.4894   11.6657   26.2156 C    0  0  0  0  0  0  0  0  0  0  0  0
    5.8592   12.8133   26.6691 N    0  0  0  0  0  0  0  0  0  0  0  0
    5.3180   12.9465   28.0298 C    0  0  0  0  0  0  0  0  0  0  0  0
    3.8156   13.1918   27.8138 C    0  0  0  0  0  0  0  0  0  0  0  0
    3.6955   13.8338   26.4114 C    0  0  0  0  0  0  0  0  0  0  0  0
    2.6081   13.1911   25.6634 O    0  0  0  0  0  0  0  0  0  0  0  0
    1.9955   13.9044   24.5458 C    0  0  0  0  0  0  0  0  0  0  0  0
    1.4039   15.0461   24.9580 F    0  0  0  0  0  0  0  0  0  0  0  0
    1.0084   13.1561   24.0217 F    0  0  0  0  0  0  0  0  0  0  0  0
    5.0760   13.6349   25.7363 C    0  0  0  0  0  0  0  0  0  0  0  0
    7.6845   11.7011   25.4356 C    0  0  0  0  0  0  0  0  0  0  0  0
    8.4228   13.0186   25.1046 C    0  0  0  0  0  0  0  0  0  0  0  0
    8.2190   13.5291   23.6695 C    0  0  0  0  0  0  0  0  0  0  0  0
    7.3764   12.9968   22.9611 O    0  0  0  0  0  0  0  0  0  0  0  0
    8.9542   14.6107   23.2250 N    0  0  0  0  0  0  0  0  0  0  0  0
    9.8368   15.4997   24.0601 C    0  0  0  0  0  0  0  0  0  0  0  0
   11.2746   15.6430   23.4915 C    0  0  0  0  0  0  0  0  0  0  0  0
   11.2652   16.1072   22.0123 C    0  0  0  0  0  0  0  0  0  0  0  0
   10.3187   15.1998   21.1725 C    0  0  0  0  0  0  0  0  0  0  0  0
   10.2676   15.6766   19.7234 C    0  0  0  0  0  0  0  0  0  0  0  0
   10.7717   14.8077   18.8208 N    0  0  0  0  0  0  0  0  0  0  0  0
    9.7185   16.7019   19.3735 O    0  0  0  0  0  0  0  0  0  0  0  0
    8.8981   15.1120   21.8144 C    0  0  0  0  0  0  0  0  0  0  0  0
    9.8815    7.9449   24.2862 H    0  0  0  0  0  0  0  0  0  0  0  0
   10.6683    8.4852   22.7927 H    0  0  0  0  0  0  0  0  0  0  0  0
    8.9024    8.2984   22.8315 H    0  0  0  0  0  0  0  0  0  0  0  0
    5.9555    8.4019   26.2986 H    0  0  0  0  0  0  0  0  0  0  0  0
    5.7727   13.7983   28.5415 H    0  0  0  0  0  0  0  0  0  0  0  0
    5.4760   12.0745   28.6709 H    0  0  0  0  0  0  0  0  0  0  0  0
    3.4176   13.8547   28.5876 H    0  0  0  0  0  0  0  0  0  0  0  0
    3.2657   12.2454   27.8747 H    0  0  0  0  0  0  0  0  0  0  0  0
    3.4928   14.9029   26.5380 H    0  0  0  0  0  0  0  0  0  0  0  0
    2.7409   14.1221   23.7730 H    0  0  0  0  0  0  0  0  0  0  0  0
    5.5590   14.6013   25.5725 H    0  0  0  0  0  0  0  0  0  0  0  0
    4.9779   13.1644   24.7513 H    0  0  0  0  0  0  0  0  0  0  0  0
    9.4860   12.8626   25.2956 H    0  0  0  0  0  0  0  0  0  0  0  0
    8.1437   13.8090   25.8034 H    0  0  0  0  0  0  0  0  0  0  0  0
    9.9345   15.1756   25.0945 H    0  0  0  0  0  0  0  0  0  0  0  0
    9.3727   16.4900   24.1242 H    0  0  0  0  0  0  0  0  0  0  0  0
   11.7959   14.6848   23.5727 H    0  0  0  0  0  0  0  0  0  0  0  0
   11.8344   16.3624   24.0941 H    0  0  0  0  0  0  0  0  0  0  0  0
   12.2800   16.0588   21.6082 H    0  0  0  0  0  0  0  0  0  0  0  0
   10.9484   17.1548   21.9544 H    0  0  0  0  0  0  0  0  0  0  0  0
   10.7355   14.1843   21.2063 H    0  0  0  0  0  0  0  0  0  0  0  0
   10.7843   15.0555   17.8365 H    0  0  0  0  0  0  0  0  0  0  0  0
   11.0030   13.8528   19.1127 H    0  0  0  0  0  0  0  0  0  0  0  0
    8.2805   14.4814   21.1691 H    0  0  0  0  0  0  0  0  0  0  0  0
    8.4050   16.0898   21.8076 H    0  0  0  0  0  0  0  0  0  0  0  0
 18 19  1  0  0  0  0
 17 18  1  0  0  0  0
  7 17  2  0  0  0  0
  6  7  1  0  0  0  0
  5  6  2  0  0  0  0
  4  5  1  0  0  0  0
  3  4  2  0  0  0  0
  2  3  1  0  0  0  0
  1  2  1  0  0  0  0
 30  1  1  0  0  0  0
 31  1  1  0  0  0  0
 32  1  1  0  0  0  0
 33  5  1  0  0  0  0
  8  7  1  0  0  0  0
  9  8  1  0  0  0  0
 10  9  1  0  0  0  0
 34  9  1  0  0  0  0
 35  9  1  0  0  0  0
 11 10  1  0  0  0  0
 36 10  1  0  0  0  0
 37 10  1  0  0  0  0
 12 11  1  0  0  0  0
 16 11  1  0  0  0  0
 38 11  1  0  0  0  0
 13 12  1  0  0  0  0
 14 13  1  0  0  0  0
 15 13  1  0  0  0  0
 39 13  1  0  0  0  0
 40 16  1  0  0  0  0
 41 16  1  0  0  0  0
 42 18  1  0  0  0  0
 43 18  1  0  0  0  0
 20 19  2  0  0  0  0
 21 19  1  0  0  0  0
 22 21  1  0  0  0  0
 23 22  1  0  0  0  0
 44 22  1  0  0  0  0
 45 22  1  0  0  0  0
 24 23  1  0  0  0  0
 46 23  1  0  0  0  0
 47 23  1  0  0  0  0
 25 24  1  0  0  0  0
 48 24  1  0  0  0  0
 49 24  1  0  0  0  0
 26 25  1  0  0  0  0
 29 25  1  0  0  0  0
 50 25  1  0  0  0  0
 27 26  1  0  0  0  0
 28 26  2  0  0  0  0
 51 27  1  0  0  0  0
 52 27  1  0  0  0  0
 53 29  1  0  0  0  0
 54 29  1  0  0  0  0
 16  8  1  0  0  0  0
 17  3  1  0  0  0  0
 29 21  1  0  0  0  0
M  END
>  <FittedScore>
-33.24

$$$$
