A71EV2A-x7359a_lowest-energy
  FITTED

 38 40     0  0  0  0  0  0  0999 V2000
    9.0802    8.7252   23.3650 C    0  0  0  0  0  0  0  0  0  0  0  0
    9.0509   10.4762   23.8578 S    0  0  0  0  0  0  0  0  0  0  0  0
    7.6623   10.7571   24.9736 C    0  0  0  0  0  0  0  0  0  0  0  0
    6.8511    9.7006   25.4399 C    0  0  0  0  0  0  0  0  0  0  0  0
    5.7952    9.9383   26.3303 C    0  0  0  0  0  0  0  0  0  0  0  0
    5.5041   11.2500   26.7311 C    0  0  0  0  0  0  0  0  0  0  0  0
    4.0712   11.6133   27.9267 BR   0  0  0  0  0  0  0  0  0  0  0  0
    6.2770   12.3148   26.2583 C    0  0  0  0  0  0  0  0  0  0  0  0
    7.3692   12.0766   25.4074 C    0  0  0  0  0  0  0  0  0  0  0  0
    8.1564   13.2905   24.9129 C    0  0  0  0  0  0  0  0  0  0  0  0
    7.7643   13.6744   23.4876 C    0  0  0  0  0  0  0  0  0  0  0  0
    6.9048   13.0485   22.8837 O    0  0  0  0  0  0  0  0  0  0  0  0
    8.5160   14.6068   22.8301 N    0  0  0  0  0  0  0  0  0  0  0  0
    8.5591   14.8293   21.3790 C    0  0  0  0  0  0  0  0  0  0  0  0
   10.0439   14.8959   20.9961 C    0  0  0  0  0  0  0  0  0  0  0  0
   10.2998   15.5763   19.6603 C    0  0  0  0  0  0  0  0  0  0  0  0
   10.8291   14.7728   18.7159 N    0  0  0  0  0  0  0  0  0  0  0  0
    9.7970   16.6342   19.3478 O    0  0  0  0  0  0  0  0  0  0  0  0
   10.5985   15.5569   22.2390 C    0  0  0  0  0  0  0  0  0  0  0  0
   11.1438   14.7601   23.3982 C    0  0  0  0  0  0  0  0  0  0  0  0
    9.7313   15.2509   23.4230 C    0  0  0  0  0  0  0  0  0  0  0  0
    9.9095    8.5636   22.6757 H    0  0  0  0  0  0  0  0  0  0  0  0
    8.1486    8.4737   22.8485 H    0  0  0  0  0  0  0  0  0  0  0  0
    9.2264    8.0823   24.2348 H    0  0  0  0  0  0  0  0  0  0  0  0
    7.0326    8.6761   25.1365 H    0  0  0  0  0  0  0  0  0  0  0  0
    5.2006    9.0977   26.6865 H    0  0  0  0  0  0  0  0  0  0  0  0
    6.0424   13.3333   26.5624 H    0  0  0  0  0  0  0  0  0  0  0  0
    9.2290   13.0838   24.9863 H    0  0  0  0  0  0  0  0  0  0  0  0
    7.9901   14.1529   25.5651 H    0  0  0  0  0  0  0  0  0  0  0  0
    8.0210   15.7577   21.1636 H    0  0  0  0  0  0  0  0  0  0  0  0
    8.0756   14.0304   20.8093 H    0  0  0  0  0  0  0  0  0  0  0  0
   10.4157   13.8627   20.9579 H    0  0  0  0  0  0  0  0  0  0  0  0
   10.8548   15.0896   17.7519 H    0  0  0  0  0  0  0  0  0  0  0  0
   10.9590   13.7788   18.9178 H    0  0  0  0  0  0  0  0  0  0  0  0
   10.9369   16.5831   22.1185 H    0  0  0  0  0  0  0  0  0  0  0  0
   11.8529   15.2408   24.0667 H    0  0  0  0  0  0  0  0  0  0  0  0
   11.2938   13.6910   23.2767 H    0  0  0  0  0  0  0  0  0  0  0  0
    9.3374   16.0767   24.0074 H    0  0  0  0  0  0  0  0  0  0  0  0
 10 11  1  0  0  0  0
  9 10  1  0  0  0  0
  8  9  2  0  0  0  0
  6  8  1  0  0  0  0
  5  6  2  0  0  0  0
  4  5  1  0  0  0  0
  3  4  2  0  0  0  0
  2  3  1  0  0  0  0
  1  2  1  0  0  0  0
 22  1  1  0  0  0  0
 23  1  1  0  0  0  0
 24  1  1  0  0  0  0
 25  4  1  0  0  0  0
 26  5  1  0  0  0  0
  7  6  1  0  0  0  0
 27  8  1  0  0  0  0
 28 10  1  0  0  0  0
 29 10  1  0  0  0  0
 12 11  2  0  0  0  0
 13 11  1  0  0  0  0
 14 13  1  0  0  0  0
 15 14  1  0  0  0  0
 30 14  1  0  0  0  0
 31 14  1  0  0  0  0
 16 15  1  0  0  0  0
 19 15  1  0  0  0  0
 32 15  1  0  0  0  0
 17 16  1  0  0  0  0
 18 16  2  0  0  0  0
 33 17  1  0  0  0  0
 34 17  1  0  0  0  0
 20 19  1  0  0  0  0
 35 19  1  0  0  0  0
 36 20  1  0  0  0  0
 37 20  1  0  0  0  0
 21 20  1  0  0  0  0
 38 21  1  0  0  0  0
  9  3  1  0  0  0  0
 21 13  1  0  0  0  0
 21 19  1  0  0  0  0
M  END
>  <FittedScore>
-33.30

$$$$
