A71EV2A-x4786a_best-RMSD
  FITTED

 34 35     0  0  0  0  0  0  0999 V2000
    7.1352   12.7624   22.9587 O    0  0  0  0  0  0  0  0  0  0  0  0
    7.7982   13.4835   23.6860 C    0  0  0  0  0  0  0  0  0  0  0  0
    7.8630   13.1881   25.2043 C    0  0  0  0  0  0  0  0  0  0  0  0
    6.7595   12.2447   25.7461 C    0  0  0  0  0  0  0  0  0  0  0  0
    7.3551   10.5445   25.6154 S    0  0  0  0  0  0  0  0  0  0  0  0
    9.1038   11.0153   25.5870 C    0  0  0  0  0  0  0  0  0  0  0  0
    9.2281   12.5477   25.6026 C    0  0  0  0  0  0  0  0  0  0  0  0
    8.5294   14.5347   23.1565 N    0  0  0  0  0  0  0  0  0  0  0  0
    9.3361   15.5436   23.9168 C    0  0  0  0  0  0  0  0  0  0  0  0
   10.8146   15.6411   23.4556 C    0  0  0  0  0  0  0  0  0  0  0  0
   10.9079   15.9503   21.9443 C    0  0  0  0  0  0  0  0  0  0  0  0
    8.5663   14.8627   21.6894 C    0  0  0  0  0  0  0  0  0  0  0  0
   10.0086   14.9971   21.1061 C    0  0  0  0  0  0  0  0  0  0  0  0
    9.9832   15.4497   19.6505 C    0  0  0  0  0  0  0  0  0  0  0  0
    9.4581   16.4731   19.2520 O    0  0  0  0  0  0  0  0  0  0  0  0
   10.5310   14.5794   18.7932 N    0  0  0  0  0  0  0  0  0  0  0  0
    7.7114   14.1155   25.7535 H    0  0  0  0  0  0  0  0  0  0  0  0
    6.5979   12.4382   26.8111 H    0  0  0  0  0  0  0  0  0  0  0  0
    5.8016   12.3555   25.2346 H    0  0  0  0  0  0  0  0  0  0  0  0
    9.5893   10.5771   26.4597 H    0  0  0  0  0  0  0  0  0  0  0  0
    9.5753   10.5875   24.6978 H    0  0  0  0  0  0  0  0  0  0  0  0
    9.4918   12.8762   26.6104 H    0  0  0  0  0  0  0  0  0  0  0  0
   10.0538   12.8513   24.9510 H    0  0  0  0  0  0  0  0  0  0  0  0
    8.8523   16.5195   23.7971 H    0  0  0  0  0  0  0  0  0  0  0  0
    9.3539   15.3807   24.9898 H    0  0  0  0  0  0  0  0  0  0  0  0
   11.3085   16.4354   24.0180 H    0  0  0  0  0  0  0  0  0  0  0  0
   11.3380   14.7094   23.6838 H    0  0  0  0  0  0  0  0  0  0  0  0
   10.6160   16.9918   21.7792 H    0  0  0  0  0  0  0  0  0  0  0  0
   11.9494   15.8621   21.6218 H    0  0  0  0  0  0  0  0  0  0  0  0
    8.0246   15.8020   21.5415 H    0  0  0  0  0  0  0  0  0  0  0  0
    8.0215   14.1355   21.0817 H    0  0  0  0  0  0  0  0  0  0  0  0
   10.4615   14.0003   21.1800 H    0  0  0  0  0  0  0  0  0  0  0  0
   10.5459   14.7890   17.8112 H    0  0  0  0  0  0  0  0  0  0  0  0
   10.8116   13.6517   19.1006 H    0  0  0  0  0  0  0  0  0  0  0  0
  2  8  1  0  0  0  0
  3  2  1  0  0  0  0
  7  3  1  0  0  0  0
  1  2  2  0  0  0  0
 17  3  1  0  0  0  0
  4  3  1  0  0  0  0
 18  4  1  0  0  0  0
 19  4  1  0  0  0  0
  5  4  1  0  0  0  0
  6  5  1  0  0  0  0
 20  6  1  0  0  0  0
 21  6  1  0  0  0  0
 22  7  1  0  0  0  0
 23  7  1  0  0  0  0
  9  8  1  0  0  0  0
 24  9  1  0  0  0  0
 25  9  1  0  0  0  0
 10  9  1  0  0  0  0
 26 10  1  0  0  0  0
 27 10  1  0  0  0  0
 11 10  1  0  0  0  0
 28 11  1  0  0  0  0
 29 11  1  0  0  0  0
 12  8  1  0  0  0  0
 30 12  1  0  0  0  0
 31 12  1  0  0  0  0
 13 11  1  0  0  0  0
 14 13  1  0  0  0  0
 32 13  1  0  0  0  0
 15 14  2  0  0  0  0
 16 14  1  0  0  0  0
 33 16  1  0  0  0  0
 34 16  1  0  0  0  0
  7  6  1  0  0  0  0
 13 12  1  0  0  0  0
M  END
>  <FittedScore>
-29.66

$$$$
