A71EV2A-x4786a_lowest-energy
  FITTED

 34 35     0  0  0  0  0  0  0999 V2000
    7.1120   12.7921   23.0760 O    0  0  0  0  0  0  0  0  0  0  0  0
    7.7912   13.5111   23.7960 C    0  0  0  0  0  0  0  0  0  0  0  0
    7.7892   13.2737   25.3267 C    0  0  0  0  0  0  0  0  0  0  0  0
    6.5071   12.6006   25.8893 C    0  0  0  0  0  0  0  0  0  0  0  0
    6.7707   10.8125   26.0089 S    0  0  0  0  0  0  0  0  0  0  0  0
    8.5312   10.9042   25.6013 C    0  0  0  0  0  0  0  0  0  0  0  0
    8.9809   12.3659   25.7446 C    0  0  0  0  0  0  0  0  0  0  0  0
    8.6020   14.4993   23.2581 N    0  0  0  0  0  0  0  0  0  0  0  0
    9.5368   15.4117   24.0205 C    0  0  0  0  0  0  0  0  0  0  0  0
   10.9654   15.5382   23.4208 C    0  0  0  0  0  0  0  0  0  0  0  0
   10.9169   15.9574   21.9374 C    0  0  0  0  0  0  0  0  0  0  0  0
    8.5724   14.8704   21.8065 C    0  0  0  0  0  0  0  0  0  0  0  0
    9.9833   14.9990   21.1493 C    0  0  0  0  0  0  0  0  0  0  0  0
    9.9046   15.4205   19.6807 C    0  0  0  0  0  0  0  0  0  0  0  0
    9.3748   16.4343   19.2658 O    0  0  0  0  0  0  0  0  0  0  0  0
   10.4693   14.5639   18.8202 N    0  0  0  0  0  0  0  0  0  0  0  0
    7.8438   14.2277   25.8563 H    0  0  0  0  0  0  0  0  0  0  0  0
    6.3089   12.9641   26.9013 H    0  0  0  0  0  0  0  0  0  0  0  0
    5.6168   12.8095   25.2905 H    0  0  0  0  0  0  0  0  0  0  0  0
    9.0951   10.2449   26.2645 H    0  0  0  0  0  0  0  0  0  0  0  0
    8.6684   10.5614   24.5731 H    0  0  0  0  0  0  0  0  0  0  0  0
    9.2447   12.5675   26.7873 H    0  0  0  0  0  0  0  0  0  0  0  0
    9.8797   12.5457   25.1494 H    0  0  0  0  0  0  0  0  0  0  0  0
    9.0791   16.4051   24.0781 H    0  0  0  0  0  0  0  0  0  0  0  0
    9.7002   15.1087   25.0513 H    0  0  0  0  0  0  0  0  0  0  0  0
   11.5418   16.2744   23.9857 H    0  0  0  0  0  0  0  0  0  0  0  0
   11.4907   14.5831   23.5161 H    0  0  0  0  0  0  0  0  0  0  0  0
   10.5684   16.9903   21.8571 H    0  0  0  0  0  0  0  0  0  0  0  0
   11.9278   15.9274   21.5165 H    0  0  0  0  0  0  0  0  0  0  0  0
    8.0191   15.8095   21.7118 H    0  0  0  0  0  0  0  0  0  0  0  0
    8.0057   14.1564   21.2042 H    0  0  0  0  0  0  0  0  0  0  0  0
   10.4363   13.9987   21.2297 H    0  0  0  0  0  0  0  0  0  0  0  0
   10.7634   13.6456   19.1369 H    0  0  0  0  0  0  0  0  0  0  0  0
   10.5624   14.8016   17.8425 H    0  0  0  0  0  0  0  0  0  0  0  0
  2  8  1  0  0  0  0
  3  2  1  0  0  0  0
  7  3  1  0  0  0  0
  1  2  2  0  0  0  0
 17  3  1  0  0  0  0
  4  3  1  0  0  0  0
 18  4  1  0  0  0  0
 19  4  1  0  0  0  0
  5  4  1  0  0  0  0
  6  5  1  0  0  0  0
 20  6  1  0  0  0  0
 21  6  1  0  0  0  0
 22  7  1  0  0  0  0
 23  7  1  0  0  0  0
  9  8  1  0  0  0  0
 24  9  1  0  0  0  0
 25  9  1  0  0  0  0
 10  9  1  0  0  0  0
 26 10  1  0  0  0  0
 27 10  1  0  0  0  0
 11 10  1  0  0  0  0
 28 11  1  0  0  0  0
 29 11  1  0  0  0  0
 12  8  1  0  0  0  0
 30 12  1  0  0  0  0
 31 12  1  0  0  0  0
 13 11  1  0  0  0  0
 14 13  1  0  0  0  0
 32 13  1  0  0  0  0
 15 14  2  0  0  0  0
 16 14  1  0  0  0  0
 33 16  1  0  0  0  0
 34 16  1  0  0  0  0
  7  6  1  0  0  0  0
 13 12  1  0  0  0  0
M  END
>  <FittedScore>
-29.81

$$$$
