A71EV2A-x3435a_best-RMSD
  FITTED

 28 29     0  0  0  0  0  0  0999 V2000
    9.5624   14.2114   24.8707 O    0  0  0  0  0  0  0  0  0  0  0  0
    9.8200   13.3057   24.1013 C    0  0  0  0  0  0  0  0  0  0  0  0
    9.1641   11.9365   24.2248 C    0  0  0  0  0  0  0  0  0  0  0  0
    8.1099   11.7576   25.1536 C    0  0  0  0  0  0  0  0  0  0  0  0
    7.4886   10.5129   25.3159 C    0  0  0  0  0  0  0  0  0  0  0  0
    7.9227    9.4141   24.5666 C    0  0  0  0  0  0  0  0  0  0  0  0
    8.9757    9.5572   23.6564 C    0  0  0  0  0  0  0  0  0  0  0  0
    9.5786   10.8102   23.4725 C    0  0  0  0  0  0  0  0  0  0  0  0
   10.7330   13.4528   23.0987 N    0  0  0  0  0  0  0  0  0  0  0  0
   11.6716   14.5814   22.9212 C    0  0  0  0  0  0  0  0  0  0  0  0
   11.8292   15.0245   21.4528 C    0  0  0  0  0  0  0  0  0  0  0  0
   10.5684   15.4661   20.7327 C    0  0  0  0  0  0  0  0  0  0  0  0
    9.5277   16.3143   21.3211 N    0  0  0  0  0  0  0  0  0  0  0  0
    8.7534   16.6534   20.1281 C    0  0  0  0  0  0  0  0  0  0  0  0
    9.2038   15.9894   19.0148 O    0  0  0  0  0  0  0  0  0  0  0  0
   10.3300   15.3013   19.3808 C    0  0  0  0  0  0  0  0  0  0  0  0
    7.7549   12.5867   25.7616 H    0  0  0  0  0  0  0  0  0  0  0  0
    6.6762   10.4019   26.0301 H    0  0  0  0  0  0  0  0  0  0  0  0
    7.4422    8.4484   24.6940 H    0  0  0  0  0  0  0  0  0  0  0  0
    9.3158    8.7029   23.0763 H    0  0  0  0  0  0  0  0  0  0  0  0
   10.3828   10.8798   22.7420 H    0  0  0  0  0  0  0  0  0  0  0  0
   10.8293   12.6915   22.4314 H    0  0  0  0  0  0  0  0  0  0  0  0
   12.6443   14.2616   23.3006 H    0  0  0  0  0  0  0  0  0  0  0  0
   11.3799   15.4442   23.5223 H    0  0  0  0  0  0  0  0  0  0  0  0
   12.3057   14.2146   20.8920 H    0  0  0  0  0  0  0  0  0  0  0  0
   12.5280   15.8631   21.4235 H    0  0  0  0  0  0  0  0  0  0  0  0
    7.9269   17.3559   20.1504 H    0  0  0  0  0  0  0  0  0  0  0  0
   10.9549   14.7493   18.6833 H    0  0  0  0  0  0  0  0  0  0  0  0
  2  9  1  0  0  0  0
  3  2  1  0  0  0  0
  8  3  2  0  0  0  0
  1  2  2  0  0  0  0
  4  3  1  0  0  0  0
 17  4  1  0  0  0  0
  5  4  2  0  0  0  0
 18  5  1  0  0  0  0
  6  5  1  0  0  0  0
 19  6  1  0  0  0  0
  7  6  2  0  0  0  0
 20  7  1  0  0  0  0
 21  8  1  0  0  0  0
 22  9  1  0  0  0  0
 10  9  1  0  0  0  0
 23 10  1  0  0  0  0
 24 10  1  0  0  0  0
 11 10  1  0  0  0  0
 25 11  1  0  0  0  0
 26 11  1  0  0  0  0
 12 11  1  0  0  0  0
 16 12  2  0  0  0  0
 13 12  1  0  0  0  0
 14 13  2  0  0  0  0
 27 14  1  0  0  0  0
 15 14  1  0  0  0  0
 28 16  1  0  0  0  0
  8  7  1  0  0  0  0
 16 15  1  0  0  0  0
M  END
>  <FittedScore>
-31.94

$$$$
