A71EV2A-x7432a_best-RMSD
  FITTED

 55 56     0  0  0  0  0  0  0999 V2000
    5.7858   13.2250   29.2613 C    0  0  0  0  0  0  0  0  0  0  0  0
    6.5715   13.6064   27.9880 C    0  0  0  0  0  0  0  0  0  0  0  0
    5.9458   13.0257   26.7704 N    0  0  0  0  0  0  0  0  0  0  0  0
    6.4462   11.8247   26.2773 C    0  0  0  0  0  0  0  0  0  0  0  0
    5.7462   10.7090   26.6351 N    0  0  0  0  0  0  0  0  0  0  0  0
    6.1910    9.5040   26.1999 C    0  0  0  0  0  0  0  0  0  0  0  0
    7.3023    9.3158   25.4425 N    0  0  0  0  0  0  0  0  0  0  0  0
    8.0380   10.4103   25.0957 C    0  0  0  0  0  0  0  0  0  0  0  0
    9.5316   10.1500   24.1395 S    0  0  0  0  0  0  0  0  0  0  0  0
    9.4487    8.4848   23.4349 C    0  0  0  0  0  0  0  0  0  0  0  0
    7.6404   11.7190   25.4961 C    0  0  0  0  0  0  0  0  0  0  0  0
    8.4923   12.9486   25.0989 C    0  0  0  0  0  0  0  0  0  0  0  0
    8.3801   13.3824   23.6268 C    0  0  0  0  0  0  0  0  0  0  0  0
    7.6320   12.7806   22.8728 O    0  0  0  0  0  0  0  0  0  0  0  0
    9.0834   14.4894   23.1926 N    0  0  0  0  0  0  0  0  0  0  0  0
    9.9345   15.4077   24.0321 C    0  0  0  0  0  0  0  0  0  0  0  0
   11.3256   15.7307   23.4124 C    0  0  0  0  0  0  0  0  0  0  0  0
   11.2281   16.2100   21.9402 C    0  0  0  0  0  0  0  0  0  0  0  0
   10.3680   15.2107   21.1162 C    0  0  0  0  0  0  0  0  0  0  0  0
   10.2315   15.6539   19.6624 C    0  0  0  0  0  0  0  0  0  0  0  0
   10.6574   14.7669   18.7405 N    0  0  0  0  0  0  0  0  0  0  0  0
    9.6202   16.6510   19.3372 O    0  0  0  0  0  0  0  0  0  0  0  0
    8.9744   15.0178   21.7932 C    0  0  0  0  0  0  0  0  0  0  0  0
    4.8288   13.7986   26.1287 C    0  0  0  0  0  0  0  0  0  0  0  0
    5.1611   14.2382   24.6801 C    0  0  0  0  0  0  0  0  0  0  0  0
    3.4759   13.0411   26.1814 C    0  0  0  0  0  0  0  0  0  0  0  0
    5.7578   12.1405   29.3923 H    0  0  0  0  0  0  0  0  0  0  0  0
    4.7576   13.5952   29.2284 H    0  0  0  0  0  0  0  0  0  0  0  0
    6.2599   13.6569   30.1471 H    0  0  0  0  0  0  0  0  0  0  0  0
    7.6009   13.2556   28.1133 H    0  0  0  0  0  0  0  0  0  0  0  0
    6.6555   14.6951   27.9199 H    0  0  0  0  0  0  0  0  0  0  0  0
    5.6184    8.6243   26.4817 H    0  0  0  0  0  0  0  0  0  0  0  0
   10.3302    8.3085   22.8146 H    0  0  0  0  0  0  0  0  0  0  0  0
    8.5549    8.3964   22.8188 H    0  0  0  0  0  0  0  0  0  0  0  0
    9.4245    7.7396   24.2310 H    0  0  0  0  0  0  0  0  0  0  0  0
    9.5380   12.7383   25.3426 H    0  0  0  0  0  0  0  0  0  0  0  0
    8.2459   13.8038   25.7235 H    0  0  0  0  0  0  0  0  0  0  0  0
   10.1325   15.0168   25.0284 H    0  0  0  0  0  0  0  0  0  0  0  0
    9.3834   16.3392   24.1951 H    0  0  0  0  0  0  0  0  0  0  0  0
   11.9665   14.8446   23.4634 H    0  0  0  0  0  0  0  0  0  0  0  0
   11.8174   16.5051   24.0067 H    0  0  0  0  0  0  0  0  0  0  0  0
   12.2304   16.2874   21.5100 H    0  0  0  0  0  0  0  0  0  0  0  0
   10.7867   17.2116   21.9061 H    0  0  0  0  0  0  0  0  0  0  0  0
   10.8797   14.2393   21.1521 H    0  0  0  0  0  0  0  0  0  0  0  0
   10.9677   13.8398   19.0372 H    0  0  0  0  0  0  0  0  0  0  0  0
   10.5281   14.9584   17.7516 H    0  0  0  0  0  0  0  0  0  0  0  0
    8.3861   14.3680   21.1399 H    0  0  0  0  0  0  0  0  0  0  0  0
    8.4289   15.9663   21.8152 H    0  0  0  0  0  0  0  0  0  0  0  0
    4.6491   14.7331   26.6718 H    0  0  0  0  0  0  0  0  0  0  0  0
    5.2635   13.3702   24.0241 H    0  0  0  0  0  0  0  0  0  0  0  0
    6.0839   14.8196   24.6483 H    0  0  0  0  0  0  0  0  0  0  0  0
    4.3686   14.8677   24.2684 H    0  0  0  0  0  0  0  0  0  0  0  0
    2.6701   13.6792   25.8116 H    0  0  0  0  0  0  0  0  0  0  0  0
    3.2261   12.7480   27.2038 H    0  0  0  0  0  0  0  0  0  0  0  0
    3.4952   12.1421   25.5587 H    0  0  0  0  0  0  0  0  0  0  0  0
 11 12  1  0  0  0  0
  8 11  2  0  0  0  0
  7  8  1  0  0  0  0
  6  7  2  0  0  0  0
  5  6  1  0  0  0  0
  4  5  2  0  0  0  0
  3  4  1  0  0  0  0
  2  3  1  0  0  0  0
  1  2  1  0  0  0  0
 27  1  1  0  0  0  0
 28  1  1  0  0  0  0
 29  1  1  0  0  0  0
 30  2  1  0  0  0  0
 31  2  1  0  0  0  0
 24  3  1  0  0  0  0
 32  6  1  0  0  0  0
  9  8  1  0  0  0  0
 10  9  1  0  0  0  0
 33 10  1  0  0  0  0
 34 10  1  0  0  0  0
 35 10  1  0  0  0  0
 13 12  1  0  0  0  0
 36 12  1  0  0  0  0
 37 12  1  0  0  0  0
 14 13  2  0  0  0  0
 15 13  1  0  0  0  0
 16 15  1  0  0  0  0
 17 16  1  0  0  0  0
 38 16  1  0  0  0  0
 39 16  1  0  0  0  0
 18 17  1  0  0  0  0
 40 17  1  0  0  0  0
 41 17  1  0  0  0  0
 19 18  1  0  0  0  0
 42 18  1  0  0  0  0
 43 18  1  0  0  0  0
 20 19  1  0  0  0  0
 23 19  1  0  0  0  0
 44 19  1  0  0  0  0
 21 20  1  0  0  0  0
 22 20  2  0  0  0  0
 45 21  1  0  0  0  0
 46 21  1  0  0  0  0
 47 23  1  0  0  0  0
 48 23  1  0  0  0  0
 25 24  1  0  0  0  0
 26 24  1  0  0  0  0
 49 24  1  0  0  0  0
 50 25  1  0  0  0  0
 51 25  1  0  0  0  0
 52 25  1  0  0  0  0
 53 26  1  0  0  0  0
 54 26  1  0  0  0  0
 55 26  1  0  0  0  0
 11  4  1  0  0  0  0
 23 15  1  0  0  0  0
M  END
>  <FittedScore>
-30.58

$$$$
