A71EV2A-x7432a_lowest-energy
  FITTED

 55 56     0  0  0  0  0  0  0999 V2000
    6.7195   13.7545   28.6391 C    0  0  0  0  0  0  0  0  0  0  0  0
    5.4369   13.0431   28.1675 C    0  0  0  0  0  0  0  0  0  0  0  0
    5.4789   12.7562   26.7034 N    0  0  0  0  0  0  0  0  0  0  0  0
    6.1903   11.6617   26.2370 C    0  0  0  0  0  0  0  0  0  0  0  0
    5.6708   10.4453   26.5697 N    0  0  0  0  0  0  0  0  0  0  0  0
    6.2754    9.3419   26.0717 C    0  0  0  0  0  0  0  0  0  0  0  0
    7.3614    9.3484   25.2569 N    0  0  0  0  0  0  0  0  0  0  0  0
    7.9214   10.5492   24.9384 C    0  0  0  0  0  0  0  0  0  0  0  0
    9.3684   10.5269   23.8745 S    0  0  0  0  0  0  0  0  0  0  0  0
    9.6884    8.7727   23.4756 C    0  0  0  0  0  0  0  0  0  0  0  0
    7.3625   11.7647   25.4283 C    0  0  0  0  0  0  0  0  0  0  0  0
    8.0276   13.1185   25.0993 C    0  0  0  0  0  0  0  0  0  0  0  0
    7.8029   13.6362   23.6697 C    0  0  0  0  0  0  0  0  0  0  0  0
    6.9793   13.0861   22.9526 O    0  0  0  0  0  0  0  0  0  0  0  0
    8.6003   14.6669   23.2036 N    0  0  0  0  0  0  0  0  0  0  0  0
    9.5328   15.5285   24.0171 C    0  0  0  0  0  0  0  0  0  0  0  0
   11.0002   15.5251   23.4996 C    0  0  0  0  0  0  0  0  0  0  0  0
   11.0797   15.9113   22.0009 C    0  0  0  0  0  0  0  0  0  0  0  0
   10.0623   15.0923   21.1491 C    0  0  0  0  0  0  0  0  0  0  0  0
   10.0623   15.5785   19.7033 C    0  0  0  0  0  0  0  0  0  0  0  0
   10.5587   14.7392   18.7747 N    0  0  0  0  0  0  0  0  0  0  0  0
    9.5426   16.6220   19.3638 O    0  0  0  0  0  0  0  0  0  0  0  0
    8.6249   15.1097   21.7720 C    0  0  0  0  0  0  0  0  0  0  0  0
    4.5168   13.4294   25.7735 C    0  0  0  0  0  0  0  0  0  0  0  0
    3.0352   13.0693   26.0796 C    0  0  0  0  0  0  0  0  0  0  0  0
    4.7259   14.9649   25.7079 C    0  0  0  0  0  0  0  0  0  0  0  0
    6.8660   14.6946   28.0999 H    0  0  0  0  0  0  0  0  0  0  0  0
    7.6010   13.1255   28.4798 H    0  0  0  0  0  0  0  0  0  0  0  0
    6.6509   13.9798   29.7060 H    0  0  0  0  0  0  0  0  0  0  0  0
    4.5894   13.6697   28.4529 H    0  0  0  0  0  0  0  0  0  0  0  0
    5.3126   12.1273   28.7513 H    0  0  0  0  0  0  0  0  0  0  0  0
    5.8470    8.3786   26.3325 H    0  0  0  0  0  0  0  0  0  0  0  0
    9.8803    8.2030   24.3880 H    0  0  0  0  0  0  0  0  0  0  0  0
   10.5689    8.7132   22.8347 H    0  0  0  0  0  0  0  0  0  0  0  0
    8.8340    8.3418   22.9444 H    0  0  0  0  0  0  0  0  0  0  0  0
    9.0974   12.9987   25.2747 H    0  0  0  0  0  0  0  0  0  0  0  0
    7.7259   13.8871   25.8101 H    0  0  0  0  0  0  0  0  0  0  0  0
    9.5555   15.2668   25.0733 H    0  0  0  0  0  0  0  0  0  0  0  0
    9.1524   16.5558   24.0053 H    0  0  0  0  0  0  0  0  0  0  0  0
   11.4451   14.5364   23.6429 H    0  0  0  0  0  0  0  0  0  0  0  0
   11.5948   16.2306   24.0844 H    0  0  0  0  0  0  0  0  0  0  0  0
   12.0938   15.7226   21.6369 H    0  0  0  0  0  0  0  0  0  0  0  0
   10.8990   16.9847   21.8884 H    0  0  0  0  0  0  0  0  0  0  0  0
   10.3944   14.0492   21.1789 H    0  0  0  0  0  0  0  0  0  0  0  0
   10.8397   13.7944   19.0395 H    0  0  0  0  0  0  0  0  0  0  0  0
   10.4545   14.9753   17.7930 H    0  0  0  0  0  0  0  0  0  0  0  0
    7.9873   14.4942   21.1330 H    0  0  0  0  0  0  0  0  0  0  0  0
    8.1992   16.1167   21.7094 H    0  0  0  0  0  0  0  0  0  0  0  0
    4.6908   13.0747   24.7528 H    0  0  0  0  0  0  0  0  0  0  0  0
    2.3912   13.4062   25.2625 H    0  0  0  0  0  0  0  0  0  0  0  0
    2.6697   13.5213   27.0061 H    0  0  0  0  0  0  0  0  0  0  0  0
    2.9055   11.9874   26.1579 H    0  0  0  0  0  0  0  0  0  0  0  0
    4.5005   15.4495   26.6608 H    0  0  0  0  0  0  0  0  0  0  0  0
    4.0728   15.4084   24.9518 H    0  0  0  0  0  0  0  0  0  0  0  0
    5.7540   15.2107   25.4359 H    0  0  0  0  0  0  0  0  0  0  0  0
 11 12  1  0  0  0  0
  8 11  2  0  0  0  0
  7  8  1  0  0  0  0
  6  7  2  0  0  0  0
  5  6  1  0  0  0  0
  4  5  2  0  0  0  0
  3  4  1  0  0  0  0
  2  3  1  0  0  0  0
  1  2  1  0  0  0  0
 27  1  1  0  0  0  0
 28  1  1  0  0  0  0
 29  1  1  0  0  0  0
 30  2  1  0  0  0  0
 31  2  1  0  0  0  0
 24  3  1  0  0  0  0
 32  6  1  0  0  0  0
  9  8  1  0  0  0  0
 10  9  1  0  0  0  0
 33 10  1  0  0  0  0
 34 10  1  0  0  0  0
 35 10  1  0  0  0  0
 13 12  1  0  0  0  0
 36 12  1  0  0  0  0
 37 12  1  0  0  0  0
 14 13  2  0  0  0  0
 15 13  1  0  0  0  0
 16 15  1  0  0  0  0
 17 16  1  0  0  0  0
 38 16  1  0  0  0  0
 39 16  1  0  0  0  0
 18 17  1  0  0  0  0
 40 17  1  0  0  0  0
 41 17  1  0  0  0  0
 19 18  1  0  0  0  0
 42 18  1  0  0  0  0
 43 18  1  0  0  0  0
 20 19  1  0  0  0  0
 23 19  1  0  0  0  0
 44 19  1  0  0  0  0
 21 20  1  0  0  0  0
 22 20  2  0  0  0  0
 45 21  1  0  0  0  0
 46 21  1  0  0  0  0
 47 23  1  0  0  0  0
 48 23  1  0  0  0  0
 25 24  1  0  0  0  0
 26 24  1  0  0  0  0
 49 24  1  0  0  0  0
 50 25  1  0  0  0  0
 51 25  1  0  0  0  0
 52 25  1  0  0  0  0
 53 26  1  0  0  0  0
 54 26  1  0  0  0  0
 55 26  1  0  0  0  0
 11  4  1  0  0  0  0
 23 15  1  0  0  0  0
M  END
>  <FittedScore>
-31.24

$$$$
