A71EV2A-x4342a_lowest-energy
  FITTED

 38 39     0  0  0  0  0  0  0999 V2000
    6.5086   14.4195   25.2270 F    0  0  0  0  0  0  0  0  0  0  0  0
    6.4064   13.6003   26.3030 C    0  0  0  0  0  0  0  0  0  0  0  0
    5.1513   13.7971   26.7780 F    0  0  0  0  0  0  0  0  0  0  0  0
    7.2517   14.0274   27.2597 F    0  0  0  0  0  0  0  0  0  0  0  0
    6.6998   12.1006   25.9894 C    0  0  0  0  0  0  0  0  0  0  0  0
    5.8195   11.1748   26.4921 N    0  0  0  0  0  0  0  0  0  0  0  0
    5.9909    9.8524   26.2292 C    0  0  0  0  0  0  0  0  0  0  0  0
    7.0402    9.3867   25.4295 C    0  0  0  0  0  0  0  0  0  0  0  0
    7.9762   10.2929   24.9399 C    0  0  0  0  0  0  0  0  0  0  0  0
    7.8395   11.6561   25.2465 C    0  0  0  0  0  0  0  0  0  0  0  0
    8.9557   12.5843   24.7658 C    0  0  0  0  0  0  0  0  0  0  0  0
    8.7072   13.1938   23.3818 C    0  0  0  0  0  0  0  0  0  0  0  0
    7.7597   12.8038   22.7198 O    0  0  0  0  0  0  0  0  0  0  0  0
    9.5095   14.2216   22.9405 N    0  0  0  0  0  0  0  0  0  0  0  0
   10.5273   14.9417   23.7902 C    0  0  0  0  0  0  0  0  0  0  0  0
   11.7914   15.4811   23.0760 C    0  0  0  0  0  0  0  0  0  0  0  0
   11.4876   16.1538   21.7206 C    0  0  0  0  0  0  0  0  0  0  0  0
    9.2907   14.8771   21.6091 C    0  0  0  0  0  0  0  0  0  0  0  0
   10.6272   15.1943   20.8687 C    0  0  0  0  0  0  0  0  0  0  0  0
   10.4010   15.7365   19.4726 C    0  0  0  0  0  0  0  0  0  0  0  0
    9.3825   16.2961   19.1245 O    0  0  0  0  0  0  0  0  0  0  0  0
   11.3007   15.3547   18.5539 N    0  0  0  0  0  0  0  0  0  0  0  0
    5.2848    9.1319   26.6370 H    0  0  0  0  0  0  0  0  0  0  0  0
    7.1457    8.3256   25.2172 H    0  0  0  0  0  0  0  0  0  0  0  0
    8.8153    9.9245   24.3491 H    0  0  0  0  0  0  0  0  0  0  0  0
    9.0938   13.3556   25.5225 H    0  0  0  0  0  0  0  0  0  0  0  0
    9.8997   12.0330   24.7381 H    0  0  0  0  0  0  0  0  0  0  0  0
   10.0209   15.7702   24.2966 H    0  0  0  0  0  0  0  0  0  0  0  0
   10.9230   14.2966   24.5757 H    0  0  0  0  0  0  0  0  0  0  0  0
   12.3089   16.1889   23.7285 H    0  0  0  0  0  0  0  0  0  0  0  0
   12.4753   14.6431   22.9157 H    0  0  0  0  0  0  0  0  0  0  0  0
   10.9617   17.1002   21.8828 H    0  0  0  0  0  0  0  0  0  0  0  0
   12.4243   16.3884   21.2045 H    0  0  0  0  0  0  0  0  0  0  0  0
    8.7001   15.7883   21.7611 H    0  0  0  0  0  0  0  0  0  0  0  0
    8.6951   14.2522   20.9351 H    0  0  0  0  0  0  0  0  0  0  0  0
   11.1539   14.2363   20.7689 H    0  0  0  0  0  0  0  0  0  0  0  0
   12.0977   14.7628   18.7869 H    0  0  0  0  0  0  0  0  0  0  0  0
   11.0928   15.5154   17.5778 H    0  0  0  0  0  0  0  0  0  0  0  0
 12 14  1  0  0  0  0
 11 12  1  0  0  0  0
 10 11  1  0  0  0  0
  9 10  2  0  0  0  0
  8  9  1  0  0  0  0
  7  8  2  0  0  0  0
  6  7  1  0  0  0  0
  5  6  2  0  0  0  0
  2  5  1  0  0  0  0
  1  2  1  0  0  0  0
  3  2  1  0  0  0  0
  4  2  1  0  0  0  0
 23  7  1  0  0  0  0
 24  8  1  0  0  0  0
 25  9  1  0  0  0  0
 26 11  1  0  0  0  0
 27 11  1  0  0  0  0
 13 12  2  0  0  0  0
 15 14  1  0  0  0  0
 28 15  1  0  0  0  0
 29 15  1  0  0  0  0
 16 15  1  0  0  0  0
 30 16  1  0  0  0  0
 31 16  1  0  0  0  0
 17 16  1  0  0  0  0
 32 17  1  0  0  0  0
 33 17  1  0  0  0  0
 18 14  1  0  0  0  0
 34 18  1  0  0  0  0
 35 18  1  0  0  0  0
 19 17  1  0  0  0  0
 20 19  1  0  0  0  0
 36 19  1  0  0  0  0
 21 20  2  0  0  0  0
 22 20  1  0  0  0  0
 37 22  1  0  0  0  0
 38 22  1  0  0  0  0
 10  5  1  0  0  0  0
 19 18  1  0  0  0  0
M  END
>  <FittedScore>
-30.12

$$$$
