A71EV2A-x4342a_best-RMSD
  FITTED

 38 39     0  0  0  0  0  0  0999 V2000
    9.9741    9.3758   23.8521 F    0  0  0  0  0  0  0  0  0  0  0  0
    9.4458   10.6051   23.9917 C    0  0  0  0  0  0  0  0  0  0  0  0
   10.4380   11.3627   24.4839 F    0  0  0  0  0  0  0  0  0  0  0  0
    9.2163   11.0398   22.7548 F    0  0  0  0  0  0  0  0  0  0  0  0
    8.1534   10.6564   24.8340 C    0  0  0  0  0  0  0  0  0  0  0  0
    7.5205    9.4620   25.0007 N    0  0  0  0  0  0  0  0  0  0  0  0
    6.4248    9.3863   25.7918 C    0  0  0  0  0  0  0  0  0  0  0  0
    5.8744   10.4923   26.4345 C    0  0  0  0  0  0  0  0  0  0  0  0
    6.4647   11.7407   26.2217 C    0  0  0  0  0  0  0  0  0  0  0  0
    7.6143   11.8463   25.4090 C    0  0  0  0  0  0  0  0  0  0  0  0
    8.2066   13.2514   25.2085 C    0  0  0  0  0  0  0  0  0  0  0  0
    8.2333   13.7272   23.7371 C    0  0  0  0  0  0  0  0  0  0  0  0
    7.2684   13.4385   23.0400 O    0  0  0  0  0  0  0  0  0  0  0  0
    9.2858   14.4836   23.2353 N    0  0  0  0  0  0  0  0  0  0  0  0
   10.4981   14.8975   24.0354 C    0  0  0  0  0  0  0  0  0  0  0  0
   11.8261   15.1971   23.2889 C    0  0  0  0  0  0  0  0  0  0  0  0
   11.6464   15.9019   21.9315 C    0  0  0  0  0  0  0  0  0  0  0  0
    9.2253   15.1357   21.8757 C    0  0  0  0  0  0  0  0  0  0  0  0
   10.5817   15.1399   21.1160 C    0  0  0  0  0  0  0  0  0  0  0  0
   10.4847   15.6570   19.6885 C    0  0  0  0  0  0  0  0  0  0  0  0
   10.1479   16.7745   19.3649 O    0  0  0  0  0  0  0  0  0  0  0  0
   10.7660   14.7637   18.7341 N    0  0  0  0  0  0  0  0  0  0  0  0
    5.9671    8.4106   25.9419 H    0  0  0  0  0  0  0  0  0  0  0  0
    5.0048   10.3861   27.0679 H    0  0  0  0  0  0  0  0  0  0  0  0
    6.0210   12.6163   26.6928 H    0  0  0  0  0  0  0  0  0  0  0  0
    7.6280   13.9921   25.7625 H    0  0  0  0  0  0  0  0  0  0  0  0
    9.1617   13.2386   25.7241 H    0  0  0  0  0  0  0  0  0  0  0  0
   10.2356   15.7664   24.6432 H    0  0  0  0  0  0  0  0  0  0  0  0
   10.7995   14.1067   24.7202 H    0  0  0  0  0  0  0  0  0  0  0  0
   12.4802   15.7945   23.9225 H    0  0  0  0  0  0  0  0  0  0  0  0
   12.3636   14.2560   23.1176 H    0  0  0  0  0  0  0  0  0  0  0  0
   11.3585   16.9485   22.0705 H    0  0  0  0  0  0  0  0  0  0  0  0
   12.5958   15.8998   21.3826 H    0  0  0  0  0  0  0  0  0  0  0  0
    8.8698   16.1660   21.9963 H    0  0  0  0  0  0  0  0  0  0  0  0
    8.4998   14.6457   21.2207 H    0  0  0  0  0  0  0  0  0  0  0  0
   10.8918   14.0865   21.0667 H    0  0  0  0  0  0  0  0  0  0  0  0
   10.6584   15.0328   17.7684 H    0  0  0  0  0  0  0  0  0  0  0  0
   10.9862   13.7978   18.9730 H    0  0  0  0  0  0  0  0  0  0  0  0
 12 14  1  0  0  0  0
 11 12  1  0  0  0  0
 10 11  1  0  0  0  0
  9 10  2  0  0  0  0
  8  9  1  0  0  0  0
  7  8  2  0  0  0  0
  6  7  1  0  0  0  0
  5  6  2  0  0  0  0
  2  5  1  0  0  0  0
  1  2  1  0  0  0  0
  3  2  1  0  0  0  0
  4  2  1  0  0  0  0
 23  7  1  0  0  0  0
 24  8  1  0  0  0  0
 25  9  1  0  0  0  0
 26 11  1  0  0  0  0
 27 11  1  0  0  0  0
 13 12  2  0  0  0  0
 15 14  1  0  0  0  0
 28 15  1  0  0  0  0
 29 15  1  0  0  0  0
 16 15  1  0  0  0  0
 30 16  1  0  0  0  0
 31 16  1  0  0  0  0
 17 16  1  0  0  0  0
 32 17  1  0  0  0  0
 33 17  1  0  0  0  0
 18 14  1  0  0  0  0
 34 18  1  0  0  0  0
 35 18  1  0  0  0  0
 19 17  1  0  0  0  0
 20 19  1  0  0  0  0
 36 19  1  0  0  0  0
 21 20  2  0  0  0  0
 22 20  1  0  0  0  0
 37 22  1  0  0  0  0
 38 22  1  0  0  0  0
 10  5  1  0  0  0  0
 19 18  1  0  0  0  0
M  END
>  <FittedScore>
-31.32

$$$$
