A71EV2A-x2846a_best-RMSD
  FITTED

 34 36     0  0  0  0  0  0  0999 V2000
    9.8957   14.3789   24.8763 O    0  0  0  0  0  0  0  0  0  0  0  0
   10.0793   13.5063   24.0433 C    0  0  0  0  0  0  0  0  0  0  0  0
    9.4371   12.2337   24.1623 C    0  0  0  0  0  0  0  0  0  0  0  0
    9.7680   11.1551   23.5075 N    0  0  0  0  0  0  0  0  0  0  0  0
    8.3173   11.8549   25.0727 C    0  0  0  0  0  0  0  0  0  0  0  0
    8.0962   10.5073   24.8690 C    0  0  0  0  0  0  0  0  0  0  0  0
    7.0939    9.8071   25.5553 C    0  0  0  0  0  0  0  0  0  0  0  0
    6.3095   10.5177   26.4852 C    0  0  0  0  0  0  0  0  0  0  0  0
    6.5301   11.8957   26.6948 C    0  0  0  0  0  0  0  0  0  0  0  0
    7.5322   12.5789   25.9815 C    0  0  0  0  0  0  0  0  0  0  0  0
    9.0001   10.1139   23.9307 N    0  0  0  0  0  0  0  0  0  0  0  0
    9.2570    8.7700   23.4183 C    0  0  0  0  0  0  0  0  0  0  0  0
   10.9512   13.6345   22.9987 N    0  0  0  0  0  0  0  0  0  0  0  0
   11.9216   14.7273   22.7884 C    0  0  0  0  0  0  0  0  0  0  0  0
   12.0456   15.1435   21.3053 C    0  0  0  0  0  0  0  0  0  0  0  0
   10.7775   15.6361   20.6206 C    0  0  0  0  0  0  0  0  0  0  0  0
    9.7390   16.4602   21.2544 N    0  0  0  0  0  0  0  0  0  0  0  0
    8.8816   16.7399   20.0928 C    0  0  0  0  0  0  0  0  0  0  0  0
    9.3232   16.1212   18.9504 O    0  0  0  0  0  0  0  0  0  0  0  0
   10.4950   15.4869   19.2739 C    0  0  0  0  0  0  0  0  0  0  0  0
    6.9191    8.7486   25.3811 H    0  0  0  0  0  0  0  0  0  0  0  0
    5.5272   10.0072   27.0402 H    0  0  0  0  0  0  0  0  0  0  0  0
    5.9224   12.4420   27.4105 H    0  0  0  0  0  0  0  0  0  0  0  0
    7.6911   13.6438   26.1377 H    0  0  0  0  0  0  0  0  0  0  0  0
   10.3225    8.5835   23.2562 H    0  0  0  0  0  0  0  0  0  0  0  0
    8.7485    8.6072   22.4660 H    0  0  0  0  0  0  0  0  0  0  0  0
    8.9168    8.0037   24.1219 H    0  0  0  0  0  0  0  0  0  0  0  0
   10.9826   12.8738   22.3218 H    0  0  0  0  0  0  0  0  0  0  0  0
   12.8961   14.3877   23.1499 H    0  0  0  0  0  0  0  0  0  0  0  0
   11.6630   15.6127   23.3810 H    0  0  0  0  0  0  0  0  0  0  0  0
   12.4468   14.2959   20.7448 H    0  0  0  0  0  0  0  0  0  0  0  0
   12.7941   15.9376   21.2331 H    0  0  0  0  0  0  0  0  0  0  0  0
    8.0002   17.3747   20.1568 H    0  0  0  0  0  0  0  0  0  0  0  0
   11.1106   14.9439   18.5591 H    0  0  0  0  0  0  0  0  0  0  0  0
  3  2  1  0  0  0  0
  4  3  2  0  0  0  0
 11  4  1  0  0  0  0
  1  2  2  0  0  0  0
  5  3  1  0  0  0  0
 10  5  2  0  0  0  0
  6  5  1  0  0  0  0
  7  6  2  0  0  0  0
 21  7  1  0  0  0  0
  8  7  1  0  0  0  0
 22  8  1  0  0  0  0
  9  8  2  0  0  0  0
 23  9  1  0  0  0  0
 24 10  1  0  0  0  0
 12 11  1  0  0  0  0
 25 12  1  0  0  0  0
 26 12  1  0  0  0  0
 27 12  1  0  0  0  0
 13  2  1  0  0  0  0
 28 13  1  0  0  0  0
 14 13  1  0  0  0  0
 29 14  1  0  0  0  0
 30 14  1  0  0  0  0
 15 14  1  0  0  0  0
 31 15  1  0  0  0  0
 32 15  1  0  0  0  0
 16 15  1  0  0  0  0
 20 16  2  0  0  0  0
 17 16  1  0  0  0  0
 18 17  2  0  0  0  0
 33 18  1  0  0  0  0
 19 18  1  0  0  0  0
 34 20  1  0  0  0  0
 10  9  1  0  0  0  0
 11  6  1  0  0  0  0
 20 19  1  0  0  0  0
M  END
>  <FittedScore>
-30.36

$$$$
