A71EV2A-x2846a_lowest-energy
  FITTED

 34 36     0  0  0  0  0  0  0999 V2000
    9.8757   14.3707   24.8680 O    0  0  0  0  0  0  0  0  0  0  0  0
   10.0493   13.5504   23.9831 C    0  0  0  0  0  0  0  0  0  0  0  0
    9.4155   12.2718   24.0479 C    0  0  0  0  0  0  0  0  0  0  0  0
    9.7389   11.2180   23.3517 N    0  0  0  0  0  0  0  0  0  0  0  0
    8.3221   11.8546   24.9744 C    0  0  0  0  0  0  0  0  0  0  0  0
    8.1278   10.5036   24.7584 C    0  0  0  0  0  0  0  0  0  0  0  0
    7.1714    9.7710   25.4781 C    0  0  0  0  0  0  0  0  0  0  0  0
    6.3834   10.4578   26.4210 C    0  0  0  0  0  0  0  0  0  0  0  0
    6.5588   11.8444   26.6239 C    0  0  0  0  0  0  0  0  0  0  0  0
    7.5350   12.5529   25.8984 C    0  0  0  0  0  0  0  0  0  0  0  0
    8.9938   10.1545   23.7689 N    0  0  0  0  0  0  0  0  0  0  0  0
    9.3600    8.8069   23.3329 C    0  0  0  0  0  0  0  0  0  0  0  0
   10.9272   13.7435   22.9525 N    0  0  0  0  0  0  0  0  0  0  0  0
   11.8722   14.8782   22.8443 C    0  0  0  0  0  0  0  0  0  0  0  0
   12.1351   15.3642   21.4030 C    0  0  0  0  0  0  0  0  0  0  0  0
   10.9245   15.8572   20.6270 C    0  0  0  0  0  0  0  0  0  0  0  0
    9.9137   16.7901   21.1416 N    0  0  0  0  0  0  0  0  0  0  0  0
    9.0116   16.8637   19.9868 C    0  0  0  0  0  0  0  0  0  0  0  0
    9.4312   16.0839   18.9392 O    0  0  0  0  0  0  0  0  0  0  0  0
   10.5818   15.4568   19.3453 C    0  0  0  0  0  0  0  0  0  0  0  0
    7.0302    8.7055   25.3161 H    0  0  0  0  0  0  0  0  0  0  0  0
    5.6272    9.9221   26.9913 H    0  0  0  0  0  0  0  0  0  0  0  0
    5.9390   12.3741   27.3387 H    0  0  0  0  0  0  0  0  0  0  0  0
    7.6643   13.6211   26.0541 H    0  0  0  0  0  0  0  0  0  0  0  0
    8.5282    8.1030   23.4041 H    0  0  0  0  0  0  0  0  0  0  0  0
   10.1772    8.4122   23.9409 H    0  0  0  0  0  0  0  0  0  0  0  0
    9.6980    8.7918   22.2926 H    0  0  0  0  0  0  0  0  0  0  0  0
   10.9916   13.0182   22.2381 H    0  0  0  0  0  0  0  0  0  0  0  0
   12.8222   14.5799   23.2886 H    0  0  0  0  0  0  0  0  0  0  0  0
   11.5151   15.7296   23.4340 H    0  0  0  0  0  0  0  0  0  0  0  0
   12.6149   14.5526   20.8501 H    0  0  0  0  0  0  0  0  0  0  0  0
   12.8660   16.1784   21.4504 H    0  0  0  0  0  0  0  0  0  0  0  0
    8.1237   17.4896   19.9878 H    0  0  0  0  0  0  0  0  0  0  0  0
   11.1303   14.7408   18.7418 H    0  0  0  0  0  0  0  0  0  0  0  0
  3  2  1  0  0  0  0
  4  3  2  0  0  0  0
 11  4  1  0  0  0  0
  1  2  2  0  0  0  0
  5  3  1  0  0  0  0
 10  5  2  0  0  0  0
  6  5  1  0  0  0  0
  7  6  2  0  0  0  0
 21  7  1  0  0  0  0
  8  7  1  0  0  0  0
 22  8  1  0  0  0  0
  9  8  2  0  0  0  0
 23  9  1  0  0  0  0
 24 10  1  0  0  0  0
 12 11  1  0  0  0  0
 25 12  1  0  0  0  0
 26 12  1  0  0  0  0
 27 12  1  0  0  0  0
 13  2  1  0  0  0  0
 28 13  1  0  0  0  0
 14 13  1  0  0  0  0
 29 14  1  0  0  0  0
 30 14  1  0  0  0  0
 15 14  1  0  0  0  0
 31 15  1  0  0  0  0
 32 15  1  0  0  0  0
 16 15  1  0  0  0  0
 20 16  2  0  0  0  0
 17 16  1  0  0  0  0
 18 17  2  0  0  0  0
 33 18  1  0  0  0  0
 19 18  1  0  0  0  0
 34 20  1  0  0  0  0
 10  9  1  0  0  0  0
 11  6  1  0  0  0  0
 20 19  1  0  0  0  0
M  END
>  <FittedScore>
-30.05

$$$$
