A71EV2A-x4496a_lowest-energy
  FITTED

 40 42     0  0  0  0  0  0  0999 V2000
   11.2500   13.2690   26.7242 F    0  0  0  0  0  0  0  0  0  0  0  0
   11.8299   12.2974   26.0046 C    0  0  0  0  0  0  0  0  0  0  0  0
   12.7685   11.7947   26.8310 F    0  0  0  0  0  0  0  0  0  0  0  0
   12.5333   12.8389   25.0079 F    0  0  0  0  0  0  0  0  0  0  0  0
   10.8843   11.2694   25.4968 N    0  0  0  0  0  0  0  0  0  0  0  0
   11.4168   10.0249   25.2776 N    0  0  0  0  0  0  0  0  0  0  0  0
   10.2725    9.3627   24.6353 C    0  0  0  0  0  0  0  0  0  0  0  0
    9.2015   10.2116   24.5143 C    0  0  0  0  0  0  0  0  0  0  0  0
    9.5775   11.4148   25.0655 C    0  0  0  0  0  0  0  0  0  0  0  0
    8.6371   12.5892   25.0742 C    0  0  0  0  0  0  0  0  0  0  0  0
    8.1332   13.4277   26.2431 C    0  0  0  0  0  0  0  0  0  0  0  0
    7.2867   12.3073   25.7486 C    0  0  0  0  0  0  0  0  0  0  0  0
    8.1318   13.2979   23.8109 C    0  0  0  0  0  0  0  0  0  0  0  0
    7.3980   12.6770   23.0561 O    0  0  0  0  0  0  0  0  0  0  0  0
    8.8045   14.3955   23.3085 N    0  0  0  0  0  0  0  0  0  0  0  0
    9.8417   15.2068   24.0395 C    0  0  0  0  0  0  0  0  0  0  0  0
   11.2128   15.2654   23.3152 C    0  0  0  0  0  0  0  0  0  0  0  0
   11.0710   15.7696   21.8716 C    0  0  0  0  0  0  0  0  0  0  0  0
    8.6670   14.8878   21.8875 C    0  0  0  0  0  0  0  0  0  0  0  0
   10.0261   14.9009   21.1243 C    0  0  0  0  0  0  0  0  0  0  0  0
    9.9323   15.3250   19.6631 C    0  0  0  0  0  0  0  0  0  0  0  0
    9.4429   16.3673   19.2727 O    0  0  0  0  0  0  0  0  0  0  0  0
   10.5895   14.5146   18.8209 N    0  0  0  0  0  0  0  0  0  0  0  0
   10.3168    8.3283   24.3112 H    0  0  0  0  0  0  0  0  0  0  0  0
    8.2411    9.9744   24.0620 H    0  0  0  0  0  0  0  0  0  0  0  0
    8.5998   13.2893   27.2140 H    0  0  0  0  0  0  0  0  0  0  0  0
    7.7506   14.4371   26.0931 H    0  0  0  0  0  0  0  0  0  0  0  0
    7.2100   11.4395   26.3978 H    0  0  0  0  0  0  0  0  0  0  0  0
    6.3144   12.6035   25.3516 H    0  0  0  0  0  0  0  0  0  0  0  0
    9.4612   16.2252   24.1682 H    0  0  0  0  0  0  0  0  0  0  0  0
   10.0398   14.8612   25.0481 H    0  0  0  0  0  0  0  0  0  0  0  0
   11.9084   15.8931   23.8831 H    0  0  0  0  0  0  0  0  0  0  0  0
   11.6463   14.2688   23.2560 H    0  0  0  0  0  0  0  0  0  0  0  0
   10.7810   16.8255   21.8662 H    0  0  0  0  0  0  0  0  0  0  0  0
   12.0436   15.6873   21.3825 H    0  0  0  0  0  0  0  0  0  0  0  0
    8.2340   15.8949   21.9057 H    0  0  0  0  0  0  0  0  0  0  0  0
    7.9613   14.2991   21.2956 H    0  0  0  0  0  0  0  0  0  0  0  0
   10.3744   13.8601   21.1590 H    0  0  0  0  0  0  0  0  0  0  0  0
   10.5995   14.7058   17.8313 H    0  0  0  0  0  0  0  0  0  0  0  0
   10.9552   13.6302   19.1703 H    0  0  0  0  0  0  0  0  0  0  0  0
 13 15  1  0  0  0  0
 10 13  1  0  0  0  0
  9 10  1  0  0  0  0
  8  9  2  0  0  0  0
  7  8  1  0  0  0  0
  6  7  2  0  0  0  0
  5  6  1  0  0  0  0
  2  5  1  0  0  0  0
  1  2  1  0  0  0  0
  3  2  1  0  0  0  0
  4  2  1  0  0  0  0
 24  7  1  0  0  0  0
 25  8  1  0  0  0  0
 12 10  1  0  0  0  0
 11 10  1  0  0  0  0
 26 11  1  0  0  0  0
 27 11  1  0  0  0  0
 28 12  1  0  0  0  0
 29 12  1  0  0  0  0
 14 13  2  0  0  0  0
 16 15  1  0  0  0  0
 30 16  1  0  0  0  0
 31 16  1  0  0  0  0
 17 16  1  0  0  0  0
 32 17  1  0  0  0  0
 33 17  1  0  0  0  0
 18 17  1  0  0  0  0
 34 18  1  0  0  0  0
 35 18  1  0  0  0  0
 19 15  1  0  0  0  0
 36 19  1  0  0  0  0
 37 19  1  0  0  0  0
 20 18  1  0  0  0  0
 21 20  1  0  0  0  0
 38 20  1  0  0  0  0
 22 21  2  0  0  0  0
 23 21  1  0  0  0  0
 39 23  1  0  0  0  0
 40 23  1  0  0  0  0
  9  5  1  0  0  0  0
 12 11  1  0  0  0  0
 20 19  1  0  0  0  0
M  END
>  <FittedScore>
-31.36

$$$$
