A71EV2A-x4496a_best-RMSD
  FITTED

 40 42     0  0  0  0  0  0  0999 V2000
    8.1270   10.3744   24.8607 F    0  0  0  0  0  0  0  0  0  0  0  0
    9.3911   10.8149   24.6917 C    0  0  0  0  0  0  0  0  0  0  0  0
    9.5618   11.1330   23.4006 F    0  0  0  0  0  0  0  0  0  0  0  0
   10.1528    9.7337   24.9273 F    0  0  0  0  0  0  0  0  0  0  0  0
    9.6957   11.9891   25.5630 N    0  0  0  0  0  0  0  0  0  0  0  0
   10.9232   12.1135   26.1440 N    0  0  0  0  0  0  0  0  0  0  0  0
   10.7373   13.3372   26.9511 C    0  0  0  0  0  0  0  0  0  0  0  0
    9.4712   13.8374   26.7939 C    0  0  0  0  0  0  0  0  0  0  0  0
    8.8669   13.0341   25.8500 C    0  0  0  0  0  0  0  0  0  0  0  0
    7.6347   13.3972   25.0972 C    0  0  0  0  0  0  0  0  0  0  0  0
    6.6152   14.3877   25.6328 C    0  0  0  0  0  0  0  0  0  0  0  0
    6.2605   12.9269   25.5400 C    0  0  0  0  0  0  0  0  0  0  0  0
    7.5683   13.6716   23.5811 C    0  0  0  0  0  0  0  0  0  0  0  0
    6.8932   12.9781   22.8431 O    0  0  0  0  0  0  0  0  0  0  0  0
    8.4784   14.5481   23.0137 N    0  0  0  0  0  0  0  0  0  0  0  0
    9.3183   15.5348   23.7522 C    0  0  0  0  0  0  0  0  0  0  0  0
   10.8210   15.4247   23.4129 C    0  0  0  0  0  0  0  0  0  0  0  0
   11.0224   15.8189   21.9295 C    0  0  0  0  0  0  0  0  0  0  0  0
    8.6592   14.7400   21.5246 C    0  0  0  0  0  0  0  0  0  0  0  0
   10.1307   14.9498   20.9910 C    0  0  0  0  0  0  0  0  0  0  0  0
   10.1659   15.5207   19.5629 C    0  0  0  0  0  0  0  0  0  0  0  0
    9.4529   16.4366   19.2000 O    0  0  0  0  0  0  0  0  0  0  0  0
   11.1417   15.0701   18.7462 N    0  0  0  0  0  0  0  0  0  0  0  0
   11.5245   13.7534   27.5757 H    0  0  0  0  0  0  0  0  0  0  0  0
    9.0844   14.7502   27.2412 H    0  0  0  0  0  0  0  0  0  0  0  0
    6.7416   14.7916   26.6316 H    0  0  0  0  0  0  0  0  0  0  0  0
    6.0827   15.0713   24.9711 H    0  0  0  0  0  0  0  0  0  0  0  0
    6.2229   12.3569   26.4620 H    0  0  0  0  0  0  0  0  0  0  0  0
    5.4713   12.6441   24.8496 H    0  0  0  0  0  0  0  0  0  0  0  0
    8.9584   16.5397   23.4968 H    0  0  0  0  0  0  0  0  0  0  0  0
    9.1910   15.5356   24.8241 H    0  0  0  0  0  0  0  0  0  0  0  0
   11.3995   16.0945   24.0551 H    0  0  0  0  0  0  0  0  0  0  0  0
   11.1829   14.4082   23.6003 H    0  0  0  0  0  0  0  0  0  0  0  0
   10.7817   16.8808   21.7994 H    0  0  0  0  0  0  0  0  0  0  0  0
   12.0766   15.7136   21.6569 H    0  0  0  0  0  0  0  0  0  0  0  0
    8.0280   15.5918   21.2532 H    0  0  0  0  0  0  0  0  0  0  0  0
    8.2542   13.8904   20.9678 H    0  0  0  0  0  0  0  0  0  0  0  0
   10.5755   13.9488   20.9739 H    0  0  0  0  0  0  0  0  0  0  0  0
   11.0930   15.2887   17.7520 H    0  0  0  0  0  0  0  0  0  0  0  0
   11.7715   14.3458   19.0752 H    0  0  0  0  0  0  0  0  0  0  0  0
 13 15  1  0  0  0  0
 10 13  1  0  0  0  0
  9 10  1  0  0  0  0
  8  9  2  0  0  0  0
  7  8  1  0  0  0  0
  6  7  2  0  0  0  0
  5  6  1  0  0  0  0
  2  5  1  0  0  0  0
  1  2  1  0  0  0  0
  3  2  1  0  0  0  0
  4  2  1  0  0  0  0
 24  7  1  0  0  0  0
 25  8  1  0  0  0  0
 12 10  1  0  0  0  0
 11 10  1  0  0  0  0
 26 11  1  0  0  0  0
 27 11  1  0  0  0  0
 28 12  1  0  0  0  0
 29 12  1  0  0  0  0
 14 13  2  0  0  0  0
 16 15  1  0  0  0  0
 30 16  1  0  0  0  0
 31 16  1  0  0  0  0
 17 16  1  0  0  0  0
 32 17  1  0  0  0  0
 33 17  1  0  0  0  0
 18 17  1  0  0  0  0
 34 18  1  0  0  0  0
 35 18  1  0  0  0  0
 19 15  1  0  0  0  0
 36 19  1  0  0  0  0
 37 19  1  0  0  0  0
 20 18  1  0  0  0  0
 21 20  1  0  0  0  0
 38 20  1  0  0  0  0
 22 21  2  0  0  0  0
 23 21  1  0  0  0  0
 39 23  1  0  0  0  0
 40 23  1  0  0  0  0
  9  5  1  0  0  0  0
 12 11  1  0  0  0  0
 20 19  1  0  0  0  0
M  END
>  <FittedScore>
-28.48

$$$$
