A71EV2A-x4706a_best-RMSD
  FITTED

 37 38     0  0  0  0  0  0  0999 V2000
    6.9650   13.0918   22.4159 O    0  0  0  0  0  0  0  0  0  0  0  0
    7.6367   13.5268   23.3306 C    0  0  0  0  0  0  0  0  0  0  0  0
    8.6885   14.3846   23.0817 N    0  0  0  0  0  0  0  0  0  0  0  0
    9.7875   14.7754   24.0427 C    0  0  0  0  0  0  0  0  0  0  0  0
   11.2247   14.9147   23.4418 C    0  0  0  0  0  0  0  0  0  0  0  0
   11.2601   15.5939   22.0466 C    0  0  0  0  0  0  0  0  0  0  0  0
    8.8109   15.0772   21.7571 C    0  0  0  0  0  0  0  0  0  0  0  0
   10.2147   14.9171   21.1283 C    0  0  0  0  0  0  0  0  0  0  0  0
   10.2931   15.4204   19.6961 C    0  0  0  0  0  0  0  0  0  0  0  0
    9.7247   16.4098   19.2886 O    0  0  0  0  0  0  0  0  0  0  0  0
   10.9266   14.6108   18.8331 N    0  0  0  0  0  0  0  0  0  0  0  0
    7.3675   12.9934   24.7420 C    0  0  0  0  0  0  0  0  0  0  0  0
    5.8481   13.0350   25.1157 C    0  0  0  0  0  0  0  0  0  0  0  0
    5.5657   12.5210   26.5497 C    0  0  0  0  0  0  0  0  0  0  0  0
    6.1056   10.7919   26.7964 S    0  0  0  0  0  0  0  0  0  0  0  0
    7.8259   10.9091   26.1884 C    0  0  0  0  0  0  0  0  0  0  0  0
    7.9810   11.5647   24.8151 C    0  0  0  0  0  0  0  0  0  0  0  0
    9.5105   15.7066   24.5446 H    0  0  0  0  0  0  0  0  0  0  0  0
    9.9098   14.0360   24.8323 H    0  0  0  0  0  0  0  0  0  0  0  0
   11.8604   15.4777   24.1319 H    0  0  0  0  0  0  0  0  0  0  0  0
   11.6743   13.9219   23.3521 H    0  0  0  0  0  0  0  0  0  0  0  0
   11.0541   16.6640   22.1487 H    0  0  0  0  0  0  0  0  0  0  0  0
   12.2636   15.5019   21.6234 H    0  0  0  0  0  0  0  0  0  0  0  0
    8.5847   16.1348   21.9177 H    0  0  0  0  0  0  0  0  0  0  0  0
    8.0688   14.7537   21.0232 H    0  0  0  0  0  0  0  0  0  0  0  0
   10.4212   13.8354   21.1190 H    0  0  0  0  0  0  0  0  0  0  0  0
   11.2036   13.6755   19.1332 H    0  0  0  0  0  0  0  0  0  0  0  0
   10.9141   14.8349   17.8433 H    0  0  0  0  0  0  0  0  0  0  0  0
    7.8412   13.6256   25.4909 H    0  0  0  0  0  0  0  0  0  0  0  0
    5.4823   14.0635   25.0298 H    0  0  0  0  0  0  0  0  0  0  0  0
    5.2608   12.4401   24.4068 H    0  0  0  0  0  0  0  0  0  0  0  0
    6.0714   13.1480   27.2916 H    0  0  0  0  0  0  0  0  0  0  0  0
    4.4952   12.5756   26.7642 H    0  0  0  0  0  0  0  0  0  0  0  0
    8.4131   11.4540   26.9329 H    0  0  0  0  0  0  0  0  0  0  0  0
    8.2230    9.8930   26.1435 H    0  0  0  0  0  0  0  0  0  0  0  0
    9.0477   11.5989   24.5735 H    0  0  0  0  0  0  0  0  0  0  0  0
    7.5067   10.9097   24.0772 H    0  0  0  0  0  0  0  0  0  0  0  0
  3  2  1  0  0  0  0
  4  3  1  0  0  0  0
 18  4  1  0  0  0  0
  1  2  2  0  0  0  0
 19  4  1  0  0  0  0
  5  4  1  0  0  0  0
 20  5  1  0  0  0  0
 21  5  1  0  0  0  0
  6  5  1  0  0  0  0
 22  6  1  0  0  0  0
 23  6  1  0  0  0  0
  7  3  1  0  0  0  0
 24  7  1  0  0  0  0
 25  7  1  0  0  0  0
  8  6  1  0  0  0  0
  9  8  1  0  0  0  0
 26  8  1  0  0  0  0
 10  9  2  0  0  0  0
 11  9  1  0  0  0  0
 27 11  1  0  0  0  0
 28 11  1  0  0  0  0
 12  2  1  0  0  0  0
 17 12  1  0  0  0  0
 29 12  1  0  0  0  0
 13 12  1  0  0  0  0
 30 13  1  0  0  0  0
 31 13  1  0  0  0  0
 14 13  1  0  0  0  0
 32 14  1  0  0  0  0
 33 14  1  0  0  0  0
 15 14  1  0  0  0  0
 16 15  1  0  0  0  0
 34 16  1  0  0  0  0
 35 16  1  0  0  0  0
 36 17  1  0  0  0  0
 37 17  1  0  0  0  0
  8  7  1  0  0  0  0
 17 16  1  0  0  0  0
M  END
>  <FittedScore>
-28.30

$$$$
