A71EV2A-x4706a_lowest-energy
  FITTED

 37 38     0  0  0  0  0  0  0999 V2000
    6.9916   13.1285   22.3396 O    0  0  0  0  0  0  0  0  0  0  0  0
    7.7110   13.5500   23.2273 C    0  0  0  0  0  0  0  0  0  0  0  0
    8.7491   14.4128   22.9431 N    0  0  0  0  0  0  0  0  0  0  0  0
    9.8157   14.9173   23.8860 C    0  0  0  0  0  0  0  0  0  0  0  0
   11.2617   14.9920   23.3086 C    0  0  0  0  0  0  0  0  0  0  0  0
   11.3301   15.6103   21.8913 C    0  0  0  0  0  0  0  0  0  0  0  0
    8.8746   15.0467   21.5972 C    0  0  0  0  0  0  0  0  0  0  0  0
   10.2953   14.9144   20.9775 C    0  0  0  0  0  0  0  0  0  0  0  0
   10.3399   15.4243   19.5455 C    0  0  0  0  0  0  0  0  0  0  0  0
    9.5387   16.2094   19.1031 O    0  0  0  0  0  0  0  0  0  0  0  0
   11.2584   14.8927   18.7212 N    0  0  0  0  0  0  0  0  0  0  0  0
    7.5383   12.9422   24.6209 C    0  0  0  0  0  0  0  0  0  0  0  0
    6.0286   12.8207   25.0218 C    0  0  0  0  0  0  0  0  0  0  0  0
    5.8296   12.2342   26.4370 C    0  0  0  0  0  0  0  0  0  0  0  0
    6.5283   10.5634   26.5802 S    0  0  0  0  0  0  0  0  0  0  0  0
    8.2250   10.8715   25.9789 C    0  0  0  0  0  0  0  0  0  0  0  0
    8.2971   11.5800   24.6248 C    0  0  0  0  0  0  0  0  0  0  0  0
    9.5185   15.9098   24.2378 H    0  0  0  0  0  0  0  0  0  0  0  0
    9.9113   14.3006   24.7762 H    0  0  0  0  0  0  0  0  0  0  0  0
   11.8913   15.5798   23.9811 H    0  0  0  0  0  0  0  0  0  0  0  0
   11.6965   13.9893   23.2769 H    0  0  0  0  0  0  0  0  0  0  0  0
   11.1367   16.6871   21.9348 H    0  0  0  0  0  0  0  0  0  0  0  0
   12.3374   15.4821   21.4864 H    0  0  0  0  0  0  0  0  0  0  0  0
    8.6028   16.1013   21.6985 H    0  0  0  0  0  0  0  0  0  0  0  0
    8.1619   14.6537   20.8640 H    0  0  0  0  0  0  0  0  0  0  0  0
   10.5272   13.8421   20.9455 H    0  0  0  0  0  0  0  0  0  0  0  0
   11.9036   14.1731   19.0292 H    0  0  0  0  0  0  0  0  0  0  0  0
   11.1780   15.0991   17.7314 H    0  0  0  0  0  0  0  0  0  0  0  0
    7.9604   13.5943   25.3869 H    0  0  0  0  0  0  0  0  0  0  0  0
    5.5658   13.8116   24.9895 H    0  0  0  0  0  0  0  0  0  0  0  0
    5.4802   12.1978   24.3088 H    0  0  0  0  0  0  0  0  0  0  0  0
    6.2994   12.8742   27.1883 H    0  0  0  0  0  0  0  0  0  0  0  0
    4.7648   12.1781   26.6707 H    0  0  0  0  0  0  0  0  0  0  0  0
    8.7528   11.4600   26.7346 H    0  0  0  0  0  0  0  0  0  0  0  0
    8.7334    9.9067   25.9159 H    0  0  0  0  0  0  0  0  0  0  0  0
    9.3496   11.7398   24.3712 H    0  0  0  0  0  0  0  0  0  0  0  0
    7.8887   10.9078   23.8641 H    0  0  0  0  0  0  0  0  0  0  0  0
  3  2  1  0  0  0  0
  4  3  1  0  0  0  0
 18  4  1  0  0  0  0
  1  2  2  0  0  0  0
 19  4  1  0  0  0  0
  5  4  1  0  0  0  0
 20  5  1  0  0  0  0
 21  5  1  0  0  0  0
  6  5  1  0  0  0  0
 22  6  1  0  0  0  0
 23  6  1  0  0  0  0
  7  3  1  0  0  0  0
 24  7  1  0  0  0  0
 25  7  1  0  0  0  0
  8  6  1  0  0  0  0
  9  8  1  0  0  0  0
 26  8  1  0  0  0  0
 10  9  2  0  0  0  0
 11  9  1  0  0  0  0
 27 11  1  0  0  0  0
 28 11  1  0  0  0  0
 12  2  1  0  0  0  0
 17 12  1  0  0  0  0
 29 12  1  0  0  0  0
 13 12  1  0  0  0  0
 30 13  1  0  0  0  0
 31 13  1  0  0  0  0
 14 13  1  0  0  0  0
 32 14  1  0  0  0  0
 33 14  1  0  0  0  0
 15 14  1  0  0  0  0
 16 15  1  0  0  0  0
 34 16  1  0  0  0  0
 35 16  1  0  0  0  0
 36 17  1  0  0  0  0
 37 17  1  0  0  0  0
  8  7  1  0  0  0  0
 17 16  1  0  0  0  0
M  END
>  <FittedScore>
-28.02

$$$$
