A71EV2A-x6025a_lowest-energy
  FITTED

 56 59     0  0  0  0  0  0  0999 V2000
    9.3638    8.6405   23.5935 C    0  0  0  0  0  0  0  0  0  0  0  0
    9.3573   10.2546   24.4285 S    0  0  0  0  0  0  0  0  0  0  0  0
    7.6813   10.6000   24.9890 C    0  0  0  0  0  0  0  0  0  0  0  0
    6.7519    9.5587   25.1500 C    0  0  0  0  0  0  0  0  0  0  0  0
    5.4488    9.8046   25.5908 C    0  0  0  0  0  0  0  0  0  0  0  0
    5.0150   11.1095   25.9169 C    0  0  0  0  0  0  0  0  0  0  0  0
    3.6016   11.3926   26.3624 C    0  0  0  0  0  0  0  0  0  0  0  0
    2.8733   12.4504   25.7372 C    0  0  0  0  0  0  0  0  0  0  0  0
    1.5236   12.7105   26.0398 C    0  0  0  0  0  0  0  0  0  0  0  0
    0.8366   11.9200   26.9684 C    0  0  0  0  0  0  0  0  0  0  0  0
    1.5445   10.8919   27.5940 C    0  0  0  0  0  0  0  0  0  0  0  0
    1.1056    9.9788   28.5227 C    0  0  0  0  0  0  0  0  0  0  0  0
    2.2157    9.0915   28.9265 N    0  0  0  0  0  0  0  0  0  0  0  0
    3.2496    9.6074   28.1853 N    0  0  0  0  0  0  0  0  0  0  0  0
    4.5944    9.3830   28.7483 C    0  0  0  0  0  0  0  0  0  0  0  0
    2.8816   10.6402   27.3440 C    0  0  0  0  0  0  0  0  0  0  0  0
    5.9535   12.1516   25.7473 C    0  0  0  0  0  0  0  0  0  0  0  0
    7.2644   11.9185   25.2898 C    0  0  0  0  0  0  0  0  0  0  0  0
    8.1556   13.1482   25.0456 C    0  0  0  0  0  0  0  0  0  0  0  0
    8.1420   13.6395   23.5841 C    0  0  0  0  0  0  0  0  0  0  0  0
    7.3333   13.1602   22.8004 O    0  0  0  0  0  0  0  0  0  0  0  0
    8.9908   14.6610   23.1945 N    0  0  0  0  0  0  0  0  0  0  0  0
    9.9460   15.4281   24.0764 C    0  0  0  0  0  0  0  0  0  0  0  0
   11.3795   15.5917   23.4891 C    0  0  0  0  0  0  0  0  0  0  0  0
   11.3684   16.1464   22.0407 C    0  0  0  0  0  0  0  0  0  0  0  0
   10.3816   15.3260   21.1664 C    0  0  0  0  0  0  0  0  0  0  0  0
   10.3427   15.8497   19.7364 C    0  0  0  0  0  0  0  0  0  0  0  0
   10.7677   14.9701   18.8114 N    0  0  0  0  0  0  0  0  0  0  0  0
    9.9184   16.9486   19.4178 O    0  0  0  0  0  0  0  0  0  0  0  0
    8.9660   15.2583   21.8150 C    0  0  0  0  0  0  0  0  0  0  0  0
   10.3443    8.4708   23.1451 H    0  0  0  0  0  0  0  0  0  0  0  0
    8.6078    8.6244   22.8049 H    0  0  0  0  0  0  0  0  0  0  0  0
    9.1724    7.8392   24.3078 H    0  0  0  0  0  0  0  0  0  0  0  0
    7.0194    8.5297   24.9440 H    0  0  0  0  0  0  0  0  0  0  0  0
    4.7671    8.9603   25.6749 H    0  0  0  0  0  0  0  0  0  0  0  0
    3.3489   13.0702   24.9798 H    0  0  0  0  0  0  0  0  0  0  0  0
    1.0098   13.5243   25.5354 H    0  0  0  0  0  0  0  0  0  0  0  0
   -0.2113   12.1031   27.1939 H    0  0  0  0  0  0  0  0  0  0  0  0
    0.1043    9.8950   28.9388 H    0  0  0  0  0  0  0  0  0  0  0  0
    5.2459   10.2535   28.6404 H    0  0  0  0  0  0  0  0  0  0  0  0
    5.0900    8.5404   28.2616 H    0  0  0  0  0  0  0  0  0  0  0  0
    4.5784    9.1632   29.8204 H    0  0  0  0  0  0  0  0  0  0  0  0
    5.6506   13.1735   25.9640 H    0  0  0  0  0  0  0  0  0  0  0  0
    9.1709   12.9192   25.3759 H    0  0  0  0  0  0  0  0  0  0  0  0
    7.8358   13.9703   25.6934 H    0  0  0  0  0  0  0  0  0  0  0  0
   10.0743   14.9777   25.0576 H    0  0  0  0  0  0  0  0  0  0  0  0
    9.5203   16.4175   24.2687 H    0  0  0  0  0  0  0  0  0  0  0  0
   11.8909   14.6239   23.5030 H    0  0  0  0  0  0  0  0  0  0  0  0
   11.9597   16.2638   24.1262 H    0  0  0  0  0  0  0  0  0  0  0  0
   12.3756   16.0876   21.6151 H    0  0  0  0  0  0  0  0  0  0  0  0
   11.0898   17.2059   22.0479 H    0  0  0  0  0  0  0  0  0  0  0  0
   10.7558   14.2934   21.1596 H    0  0  0  0  0  0  0  0  0  0  0  0
   11.0005   14.0159   19.0847 H    0  0  0  0  0  0  0  0  0  0  0  0
   10.7642   15.2215   17.8338 H    0  0  0  0  0  0  0  0  0  0  0  0
    8.3230   14.7024   21.1264 H    0  0  0  0  0  0  0  0  0  0  0  0
    8.5278   16.2607   21.8691 H    0  0  0  0  0  0  0  0  0  0  0  0
 17 18  2  0  0  0  0
  6 17  1  0  0  0  0
  5  6  2  0  0  0  0
  4  5  1  0  0  0  0
  3  4  2  0  0  0  0
  2  3  1  0  0  0  0
  1  2  1  0  0  0  0
 31  1  1  0  0  0  0
 32  1  1  0  0  0  0
 33  1  1  0  0  0  0
 34  4  1  0  0  0  0
 35  5  1  0  0  0  0
  7  6  1  0  0  0  0
  8  7  2  0  0  0  0
  9  8  1  0  0  0  0
 36  8  1  0  0  0  0
 10  9  2  0  0  0  0
 37  9  1  0  0  0  0
 11 10  1  0  0  0  0
 38 10  1  0  0  0  0
 12 11  1  0  0  0  0
 13 12  2  0  0  0  0
 39 12  1  0  0  0  0
 14 13  1  0  0  0  0
 15 14  1  0  0  0  0
 16 14  1  0  0  0  0
 40 15  1  0  0  0  0
 41 15  1  0  0  0  0
 42 15  1  0  0  0  0
 43 17  1  0  0  0  0
 19 18  1  0  0  0  0
 20 19  1  0  0  0  0
 44 19  1  0  0  0  0
 45 19  1  0  0  0  0
 21 20  2  0  0  0  0
 22 20  1  0  0  0  0
 23 22  1  0  0  0  0
 24 23  1  0  0  0  0
 46 23  1  0  0  0  0
 47 23  1  0  0  0  0
 25 24  1  0  0  0  0
 48 24  1  0  0  0  0
 49 24  1  0  0  0  0
 26 25  1  0  0  0  0
 50 25  1  0  0  0  0
 51 25  1  0  0  0  0
 27 26  1  0  0  0  0
 30 26  1  0  0  0  0
 52 26  1  0  0  0  0
 28 27  1  0  0  0  0
 29 27  2  0  0  0  0
 53 28  1  0  0  0  0
 54 28  1  0  0  0  0
 55 30  1  0  0  0  0
 56 30  1  0  0  0  0
 16  7  1  0  0  0  0
 16 11  2  0  0  0  0
 18  3  1  0  0  0  0
 30 22  1  0  0  0  0
M  END
>  <FittedScore>
-35.27

$$$$
