A71EV2A-x4669a_lowest-energy
  FITTED

 42 44     0  0  0  0  0  0  0999 V2000
    8.8122    9.8448   24.4612 CL   0  0  0  0  0  0  0  0  0  0  0  0
    7.5713   10.6711   25.3601 C    0  0  0  0  0  0  0  0  0  0  0  0
    6.4870    9.9065   25.8216 C    0  0  0  0  0  0  0  0  0  0  0  0
    5.3965   10.5355   26.4344 C    0  0  0  0  0  0  0  0  0  0  0  0
    4.2746    9.8063   26.7924 O    0  0  0  0  0  0  0  0  0  0  0  0
    3.2164   10.3925   27.6164 C    0  0  0  0  0  0  0  0  0  0  0  0
    3.0044   11.8769   27.2089 C    0  0  0  0  0  0  0  0  0  0  0  0
    4.2985   12.5486   27.2218 O    0  0  0  0  0  0  0  0  0  0  0  0
    5.3933   11.9295   26.6252 C    0  0  0  0  0  0  0  0  0  0  0  0
    6.4805   12.6915   26.2051 C    0  0  0  0  0  0  0  0  0  0  0  0
    7.5761   12.0760   25.5704 C    0  0  0  0  0  0  0  0  0  0  0  0
    8.6888   12.9885   25.0632 C    0  0  0  0  0  0  0  0  0  0  0  0
    8.4743   13.4934   23.6249 C    0  0  0  0  0  0  0  0  0  0  0  0
    7.6059   12.9920   22.9205 O    0  0  0  0  0  0  0  0  0  0  0  0
    9.2720   14.5164   23.1506 N    0  0  0  0  0  0  0  0  0  0  0  0
   10.2939   15.3057   23.9424 C    0  0  0  0  0  0  0  0  0  0  0  0
   11.6483   15.5689   23.2212 C    0  0  0  0  0  0  0  0  0  0  0  0
   11.4514   16.1299   21.7985 C    0  0  0  0  0  0  0  0  0  0  0  0
    9.1145   15.0714   21.7691 C    0  0  0  0  0  0  0  0  0  0  0  0
   10.4720   15.2096   21.0269 C    0  0  0  0  0  0  0  0  0  0  0  0
   10.3070   15.6657   19.5967 C    0  0  0  0  0  0  0  0  0  0  0  0
    9.7817   16.7205   19.2881 O    0  0  0  0  0  0  0  0  0  0  0  0
   10.6770   14.7484   18.6821 N    0  0  0  0  0  0  0  0  0  0  0  0
    6.4740    8.8318   25.6618 H    0  0  0  0  0  0  0  0  0  0  0  0
    3.5063   10.3306   28.6686 H    0  0  0  0  0  0  0  0  0  0  0  0
    2.2944    9.8173   27.4839 H    0  0  0  0  0  0  0  0  0  0  0  0
    2.3210   12.3871   27.8947 H    0  0  0  0  0  0  0  0  0  0  0  0
    2.5849   11.9365   26.1994 H    0  0  0  0  0  0  0  0  0  0  0  0
    6.4573   13.7704   26.3484 H    0  0  0  0  0  0  0  0  0  0  0  0
    8.7478   13.8339   25.7548 H    0  0  0  0  0  0  0  0  0  0  0  0
    9.6550   12.4850   25.1391 H    0  0  0  0  0  0  0  0  0  0  0  0
    9.8514   16.2669   24.2200 H    0  0  0  0  0  0  0  0  0  0  0  0
   10.5770   14.8267   24.8785 H    0  0  0  0  0  0  0  0  0  0  0  0
   12.2512   16.2702   23.8044 H    0  0  0  0  0  0  0  0  0  0  0  0
   12.2171   14.6341   23.1669 H    0  0  0  0  0  0  0  0  0  0  0  0
   11.0651   17.1518   21.8478 H    0  0  0  0  0  0  0  0  0  0  0  0
   12.4114   16.1740   21.2801 H    0  0  0  0  0  0  0  0  0  0  0  0
    8.6045   16.0395   21.8280 H    0  0  0  0  0  0  0  0  0  0  0  0
    8.4766   14.4475   21.1362 H    0  0  0  0  0  0  0  0  0  0  0  0
   10.9168   14.2078   21.0144 H    0  0  0  0  0  0  0  0  0  0  0  0
   10.7591   15.0201   17.7157 H    0  0  0  0  0  0  0  0  0  0  0  0
   10.9016   13.7904   18.9503 H    0  0  0  0  0  0  0  0  0  0  0  0
 12 13  1  0  0  0  0
 11 12  1  0  0  0  0
 10 11  2  0  0  0  0
  9 10  1  0  0  0  0
  4  9  2  0  0  0  0
  3  4  1  0  0  0  0
  2  3  2  0  0  0  0
  1  2  1  0  0  0  0
 24  3  1  0  0  0  0
  5  4  1  0  0  0  0
  6  5  1  0  0  0  0
 25  6  1  0  0  0  0
 26  6  1  0  0  0  0
  7  6  1  0  0  0  0
 27  7  1  0  0  0  0
 28  7  1  0  0  0  0
  8  7  1  0  0  0  0
 29 10  1  0  0  0  0
 30 12  1  0  0  0  0
 31 12  1  0  0  0  0
 14 13  2  0  0  0  0
 15 13  1  0  0  0  0
 16 15  1  0  0  0  0
 32 16  1  0  0  0  0
 33 16  1  0  0  0  0
 17 16  1  0  0  0  0
 34 17  1  0  0  0  0
 35 17  1  0  0  0  0
 18 17  1  0  0  0  0
 36 18  1  0  0  0  0
 37 18  1  0  0  0  0
 19 15  1  0  0  0  0
 38 19  1  0  0  0  0
 39 19  1  0  0  0  0
 20 18  1  0  0  0  0
 21 20  1  0  0  0  0
 40 20  1  0  0  0  0
 22 21  2  0  0  0  0
 23 21  1  0  0  0  0
 41 23  1  0  0  0  0
 42 23  1  0  0  0  0
  9  8  1  0  0  0  0
 11  2  1  0  0  0  0
 20 19  1  0  0  0  0
M  END
>  <FittedScore>
-35.48

$$$$
