A71EV2A-x7056a_best-RMSD
  FITTED

 57 60     0  0  0  0  0  0  0999 V2000
    9.6172    8.5894   23.4279 C    0  0  0  0  0  0  0  0  0  0  0  0
    9.5027   10.3350   23.9081 S    0  0  0  0  0  0  0  0  0  0  0  0
    8.0769   10.4898   24.9862 C    0  0  0  0  0  0  0  0  0  0  0  0
    7.4070    9.3533   25.3295 N    0  0  0  0  0  0  0  0  0  0  0  0
    6.3383    9.4587   26.1614 C    0  0  0  0  0  0  0  0  0  0  0  0
    5.8542   10.6274   26.6500 N    0  0  0  0  0  0  0  0  0  0  0  0
    6.4762   11.7861   26.2864 C    0  0  0  0  0  0  0  0  0  0  0  0
    5.8840   12.9547   26.7299 N    0  0  0  0  0  0  0  0  0  0  0  0
    5.6010   13.2485   28.1331 C    0  0  0  0  0  0  0  0  0  0  0  0
    5.0350   14.6774   28.1148 C    0  0  0  0  0  0  0  0  0  0  0  0
    4.4491   14.9090   26.6932 C    0  0  0  0  0  0  0  0  0  0  0  0
    4.4391   16.3854   26.1436 C    0  0  0  0  0  0  0  0  0  0  0  0
    2.9930   16.5095   26.7284 C    0  0  0  0  0  0  0  0  0  0  0  0
    2.8814   14.9592   26.5518 C    0  0  0  0  0  0  0  0  0  0  0  0
    5.1815   13.8655   25.8259 C    0  0  0  0  0  0  0  0  0  0  0  0
    7.6444   11.7601   25.4643 C    0  0  0  0  0  0  0  0  0  0  0  0
    8.4191   13.0434   25.0864 C    0  0  0  0  0  0  0  0  0  0  0  0
    8.2015   13.5233   23.6397 C    0  0  0  0  0  0  0  0  0  0  0  0
    7.3786   12.9591   22.9404 O    0  0  0  0  0  0  0  0  0  0  0  0
    8.9593   14.5619   23.1405 N    0  0  0  0  0  0  0  0  0  0  0  0
    9.7540   15.5371   23.9597 C    0  0  0  0  0  0  0  0  0  0  0  0
   11.2075   15.7392   23.4617 C    0  0  0  0  0  0  0  0  0  0  0  0
   11.2505   16.1510   21.9696 C    0  0  0  0  0  0  0  0  0  0  0  0
   10.4245   15.1457   21.1162 C    0  0  0  0  0  0  0  0  0  0  0  0
   10.4068   15.5607   19.6466 C    0  0  0  0  0  0  0  0  0  0  0  0
   10.8216   14.6451   18.7600 N    0  0  0  0  0  0  0  0  0  0  0  0
    9.9421   16.6019   19.2422 O    0  0  0  0  0  0  0  0  0  0  0  0
    8.9808   14.9520   21.6858 C    0  0  0  0  0  0  0  0  0  0  0  0
    8.7114    8.2924   22.8955 H    0  0  0  0  0  0  0  0  0  0  0  0
    9.7404    7.9787   24.3219 H    0  0  0  0  0  0  0  0  0  0  0  0
   10.4809    8.4381   22.7772 H    0  0  0  0  0  0  0  0  0  0  0  0
    5.8336    8.5398   26.4557 H    0  0  0  0  0  0  0  0  0  0  0  0
    6.4993   13.1919   28.7544 H    0  0  0  0  0  0  0  0  0  0  0  0
    4.8571   12.5626   28.5522 H    0  0  0  0  0  0  0  0  0  0  0  0
    5.8383   15.3911   28.3177 H    0  0  0  0  0  0  0  0  0  0  0  0
    4.2841   14.8055   28.9004 H    0  0  0  0  0  0  0  0  0  0  0  0
    4.4884   16.4808   25.0509 H    0  0  0  0  0  0  0  0  0  0  0  0
    5.1890   17.0640   26.5616 H    0  0  0  0  0  0  0  0  0  0  0  0
    2.2897   17.1071   26.1391 H    0  0  0  0  0  0  0  0  0  0  0  0
    2.9419   16.8595   27.7668 H    0  0  0  0  0  0  0  0  0  0  0  0
    2.4879   14.6490   25.5745 H    0  0  0  0  0  0  0  0  0  0  0  0
    2.3118   14.4234   27.3167 H    0  0  0  0  0  0  0  0  0  0  0  0
    5.8711   14.3736   25.1508 H    0  0  0  0  0  0  0  0  0  0  0  0
    4.4844   13.3200   25.1833 H    0  0  0  0  0  0  0  0  0  0  0  0
    9.4829   12.8732   25.2698 H    0  0  0  0  0  0  0  0  0  0  0  0
    8.1689   13.8529   25.7726 H    0  0  0  0  0  0  0  0  0  0  0  0
    9.8240   15.2701   25.0134 H    0  0  0  0  0  0  0  0  0  0  0  0
    9.2330   16.5008   23.9490 H    0  0  0  0  0  0  0  0  0  0  0  0
   11.7828   14.8217   23.6119 H    0  0  0  0  0  0  0  0  0  0  0  0
   11.6908   16.5163   24.0611 H    0  0  0  0  0  0  0  0  0  0  0  0
   12.2871   16.1655   21.6252 H    0  0  0  0  0  0  0  0  0  0  0  0
   10.8594   17.1696   21.8567 H    0  0  0  0  0  0  0  0  0  0  0  0
   10.9265   14.1752   21.2054 H    0  0  0  0  0  0  0  0  0  0  0  0
   10.7826   14.8562   17.7713 H    0  0  0  0  0  0  0  0  0  0  0  0
   11.0496   13.7023   19.0632 H    0  0  0  0  0  0  0  0  0  0  0  0
    8.4850   14.2041   21.0608 H    0  0  0  0  0  0  0  0  0  0  0  0
    8.4005   15.8739   21.5603 H    0  0  0  0  0  0  0  0  0  0  0  0
 16 17  1  0  0  0  0
  7 16  2  0  0  0  0
  6  7  1  0  0  0  0
  5  6  2  0  0  0  0
  4  5  1  0  0  0  0
  3  4  2  0  0  0  0
  2  3  1  0  0  0  0
  1  2  1  0  0  0  0
 29  1  1  0  0  0  0
 30  1  1  0  0  0  0
 31  1  1  0  0  0  0
 32  5  1  0  0  0  0
  8  7  1  0  0  0  0
  9  8  1  0  0  0  0
 10  9  1  0  0  0  0
 33  9  1  0  0  0  0
 34  9  1  0  0  0  0
 11 10  1  0  0  0  0
 35 10  1  0  0  0  0
 36 10  1  0  0  0  0
 12 11  1  0  0  0  0
 15 11  1  0  0  0  0
 13 12  1  0  0  0  0
 37 12  1  0  0  0  0
 38 12  1  0  0  0  0
 14 13  1  0  0  0  0
 39 13  1  0  0  0  0
 40 13  1  0  0  0  0
 41 14  1  0  0  0  0
 42 14  1  0  0  0  0
 43 15  1  0  0  0  0
 44 15  1  0  0  0  0
 18 17  1  0  0  0  0
 45 17  1  0  0  0  0
 46 17  1  0  0  0  0
 19 18  2  0  0  0  0
 20 18  1  0  0  0  0
 21 20  1  0  0  0  0
 22 21  1  0  0  0  0
 47 21  1  0  0  0  0
 48 21  1  0  0  0  0
 23 22  1  0  0  0  0
 49 22  1  0  0  0  0
 50 22  1  0  0  0  0
 24 23  1  0  0  0  0
 51 23  1  0  0  0  0
 52 23  1  0  0  0  0
 25 24  1  0  0  0  0
 28 24  1  0  0  0  0
 53 24  1  0  0  0  0
 26 25  1  0  0  0  0
 27 25  2  0  0  0  0
 54 26  1  0  0  0  0
 55 26  1  0  0  0  0
 56 28  1  0  0  0  0
 57 28  1  0  0  0  0
 14 11  1  0  0  0  0
 15  8  1  0  0  0  0
 16  3  1  0  0  0  0
 28 20  1  0  0  0  0
M  END
>  <FittedScore>
-31.74

$$$$
