A71EV2A-x7056a_lowest-energy
  FITTED

 57 60     0  0  0  0  0  0  0999 V2000
    9.6218    8.6319   23.4079 C    0  0  0  0  0  0  0  0  0  0  0  0
    9.4694   10.3799   23.8849 S    0  0  0  0  0  0  0  0  0  0  0  0
    8.0448   10.4906   24.9692 C    0  0  0  0  0  0  0  0  0  0  0  0
    7.3992    9.3354   25.2883 N    0  0  0  0  0  0  0  0  0  0  0  0
    6.3180    9.4026   26.1102 C    0  0  0  0  0  0  0  0  0  0  0  0
    5.7989   10.5480   26.6146 N    0  0  0  0  0  0  0  0  0  0  0  0
    6.4089   11.7185   26.2813 C    0  0  0  0  0  0  0  0  0  0  0  0
    5.7764   12.8439   26.7699 N    0  0  0  0  0  0  0  0  0  0  0  0
    6.1994   13.5128   27.9942 C    0  0  0  0  0  0  0  0  0  0  0  0
    6.1253   15.0096   27.6608 C    0  0  0  0  0  0  0  0  0  0  0  0
    5.2266   15.1689   26.3964 C    0  0  0  0  0  0  0  0  0  0  0  0
    5.7027   16.2032   25.3058 C    0  0  0  0  0  0  0  0  0  0  0  0
    4.8300   17.2611   26.0582 C    0  0  0  0  0  0  0  0  0  0  0  0
    3.9422   16.0665   26.5322 C    0  0  0  0  0  0  0  0  0  0  0  0
    4.9841   13.7203   25.9118 C    0  0  0  0  0  0  0  0  0  0  0  0
    7.5875   11.7429   25.4748 C    0  0  0  0  0  0  0  0  0  0  0  0
    8.3538   13.0416   25.1458 C    0  0  0  0  0  0  0  0  0  0  0  0
    8.1409   13.5807   23.7240 C    0  0  0  0  0  0  0  0  0  0  0  0
    7.3710   13.0027   22.9756 O    0  0  0  0  0  0  0  0  0  0  0  0
    8.8795   14.6631   23.2872 N    0  0  0  0  0  0  0  0  0  0  0  0
    9.8803   15.4429   24.0949 C    0  0  0  0  0  0  0  0  0  0  0  0
   11.3207   15.3315   23.5165 C    0  0  0  0  0  0  0  0  0  0  0  0
   11.3766   15.7705   22.0293 C    0  0  0  0  0  0  0  0  0  0  0  0
   10.2712   15.0633   21.1901 C    0  0  0  0  0  0  0  0  0  0  0  0
   10.2898   15.5527   19.7384 C    0  0  0  0  0  0  0  0  0  0  0  0
   10.7565   14.6890   18.8221 N    0  0  0  0  0  0  0  0  0  0  0  0
    9.8736   16.6281   19.3703 O    0  0  0  0  0  0  0  0  0  0  0  0
    8.8641   15.1778   21.8714 C    0  0  0  0  0  0  0  0  0  0  0  0
    8.7258    8.3160   22.8681 H    0  0  0  0  0  0  0  0  0  0  0  0
    9.7495    8.0155   24.2991 H    0  0  0  0  0  0  0  0  0  0  0  0
   10.4916    8.5007   22.7619 H    0  0  0  0  0  0  0  0  0  0  0  0
    5.8268    8.4670   26.3683 H    0  0  0  0  0  0  0  0  0  0  0  0
    7.2144   13.2362   28.2958 H    0  0  0  0  0  0  0  0  0  0  0  0
    5.5261   13.2718   28.8227 H    0  0  0  0  0  0  0  0  0  0  0  0
    7.1297   15.3951   27.4701 H    0  0  0  0  0  0  0  0  0  0  0  0
    5.7309   15.5710   28.5156 H    0  0  0  0  0  0  0  0  0  0  0  0
    5.3642   16.0031   24.2804 H    0  0  0  0  0  0  0  0  0  0  0  0
    6.7770   16.4136   25.2593 H    0  0  0  0  0  0  0  0  0  0  0  0
    4.3265   17.9996   25.4266 H    0  0  0  0  0  0  0  0  0  0  0  0
    5.3470   17.8047   26.8590 H    0  0  0  0  0  0  0  0  0  0  0  0
    3.1180   15.8197   25.8497 H    0  0  0  0  0  0  0  0  0  0  0  0
    3.5149   16.1547   27.5365 H    0  0  0  0  0  0  0  0  0  0  0  0
    5.2520   13.6105   24.8575 H    0  0  0  0  0  0  0  0  0  0  0  0
    3.9261   13.4568   25.9778 H    0  0  0  0  0  0  0  0  0  0  0  0
    9.4163   12.8524   25.3192 H    0  0  0  0  0  0  0  0  0  0  0  0
    8.1051   13.8350   25.8466 H    0  0  0  0  0  0  0  0  0  0  0  0
    9.9226   15.1602   25.1454 H    0  0  0  0  0  0  0  0  0  0  0  0
    9.5828   16.4954   24.1158 H    0  0  0  0  0  0  0  0  0  0  0  0
   11.6850   14.3021   23.6153 H    0  0  0  0  0  0  0  0  0  0  0  0
   11.9996   15.9595   24.1009 H    0  0  0  0  0  0  0  0  0  0  0  0
   12.3614   15.5157   21.6226 H    0  0  0  0  0  0  0  0  0  0  0  0
   11.2658   16.8569   21.9628 H    0  0  0  0  0  0  0  0  0  0  0  0
   10.5161   13.9931   21.2012 H    0  0  0  0  0  0  0  0  0  0  0  0
   10.7096   14.9258   17.8377 H    0  0  0  0  0  0  0  0  0  0  0  0
   11.0022   13.7420   19.0970 H    0  0  0  0  0  0  0  0  0  0  0  0
    8.1409   14.6517   21.2450 H    0  0  0  0  0  0  0  0  0  0  0  0
    8.5314   16.2221   21.8743 H    0  0  0  0  0  0  0  0  0  0  0  0
 16 17  1  0  0  0  0
  7 16  2  0  0  0  0
  6  7  1  0  0  0  0
  5  6  2  0  0  0  0
  4  5  1  0  0  0  0
  3  4  2  0  0  0  0
  2  3  1  0  0  0  0
  1  2  1  0  0  0  0
 29  1  1  0  0  0  0
 30  1  1  0  0  0  0
 31  1  1  0  0  0  0
 32  5  1  0  0  0  0
  8  7  1  0  0  0  0
  9  8  1  0  0  0  0
 10  9  1  0  0  0  0
 33  9  1  0  0  0  0
 34  9  1  0  0  0  0
 11 10  1  0  0  0  0
 35 10  1  0  0  0  0
 36 10  1  0  0  0  0
 12 11  1  0  0  0  0
 15 11  1  0  0  0  0
 13 12  1  0  0  0  0
 37 12  1  0  0  0  0
 38 12  1  0  0  0  0
 14 13  1  0  0  0  0
 39 13  1  0  0  0  0
 40 13  1  0  0  0  0
 41 14  1  0  0  0  0
 42 14  1  0  0  0  0
 43 15  1  0  0  0  0
 44 15  1  0  0  0  0
 18 17  1  0  0  0  0
 45 17  1  0  0  0  0
 46 17  1  0  0  0  0
 19 18  2  0  0  0  0
 20 18  1  0  0  0  0
 21 20  1  0  0  0  0
 22 21  1  0  0  0  0
 47 21  1  0  0  0  0
 48 21  1  0  0  0  0
 23 22  1  0  0  0  0
 49 22  1  0  0  0  0
 50 22  1  0  0  0  0
 24 23  1  0  0  0  0
 51 23  1  0  0  0  0
 52 23  1  0  0  0  0
 25 24  1  0  0  0  0
 28 24  1  0  0  0  0
 53 24  1  0  0  0  0
 26 25  1  0  0  0  0
 27 25  2  0  0  0  0
 54 26  1  0  0  0  0
 55 26  1  0  0  0  0
 56 28  1  0  0  0  0
 57 28  1  0  0  0  0
 14 11  1  0  0  0  0
 15  8  1  0  0  0  0
 16  3  1  0  0  0  0
 28 20  1  0  0  0  0
M  END
>  <FittedScore>
-32.10

$$$$
