A71EV2A-x3975a_best-RMSD
  FITTED

 52 54     0  0  0  0  0  0  0999 V2000
    6.9590   13.2592   22.6225 O    0  0  0  0  0  0  0  0  0  0  0  0
    7.7080   13.7687   23.4480 C    0  0  0  0  0  0  0  0  0  0  0  0
    8.6499   14.7147   23.0790 N    0  0  0  0  0  0  0  0  0  0  0  0
    9.6897   15.3917   23.9408 C    0  0  0  0  0  0  0  0  0  0  0  0
   11.1369   15.3542   23.3649 C    0  0  0  0  0  0  0  0  0  0  0  0
   11.2000   15.8673   21.9060 C    0  0  0  0  0  0  0  0  0  0  0  0
    8.7159   15.2603   21.6829 C    0  0  0  0  0  0  0  0  0  0  0  0
   10.1308   15.1483   21.0422 C    0  0  0  0  0  0  0  0  0  0  0  0
   10.1772   15.6597   19.6057 C    0  0  0  0  0  0  0  0  0  0  0  0
    9.6639   16.7021   19.2383 O    0  0  0  0  0  0  0  0  0  0  0  0
   10.7502   14.8192   18.7253 N    0  0  0  0  0  0  0  0  0  0  0  0
    7.6145   13.2317   24.8955 C    0  0  0  0  0  0  0  0  0  0  0  0
    8.0419   11.7536   24.8438 C    0  0  0  0  0  0  0  0  0  0  0  0
    9.3184   11.4468   24.3228 C    0  0  0  0  0  0  0  0  0  0  0  0
    9.6810   10.1223   24.0524 C    0  0  0  0  0  0  0  0  0  0  0  0
    8.7752    9.0823   24.2951 C    0  0  0  0  0  0  0  0  0  0  0  0
    7.5352    9.3686   24.8811 C    0  0  0  0  0  0  0  0  0  0  0  0
    7.1701   10.6914   25.1600 C    0  0  0  0  0  0  0  0  0  0  0  0
    6.2290   13.5996   25.5246 C    0  0  0  0  0  0  0  0  0  0  0  0
    5.9236   15.0989   25.4700 N    0  0  0  0  0  0  0  0  0  0  0  0
    4.4779   15.4355   25.7463 C    0  0  0  0  0  0  0  0  0  0  0  0
    4.4895   16.9430   26.0570 C    0  0  0  0  0  0  0  0  0  0  0  0
    5.9296   17.2790   26.4992 C    0  0  0  0  0  0  0  0  0  0  0  0
    6.7260   15.9651   26.4162 C    0  0  0  0  0  0  0  0  0  0  0  0
    9.3885   16.4354   24.0873 H    0  0  0  0  0  0  0  0  0  0  0  0
    9.7765   14.9893   24.9441 H    0  0  0  0  0  0  0  0  0  0  0  0
   11.7888   15.9684   23.9921 H    0  0  0  0  0  0  0  0  0  0  0  0
   11.5243   14.3307   23.4070 H    0  0  0  0  0  0  0  0  0  0  0  0
   11.0398   16.9501   21.8881 H    0  0  0  0  0  0  0  0  0  0  0  0
   12.1999   15.6839   21.4946 H    0  0  0  0  0  0  0  0  0  0  0  0
    8.4013   16.3081   21.7118 H    0  0  0  0  0  0  0  0  0  0  0  0
    8.0113   14.7748   21.0045 H    0  0  0  0  0  0  0  0  0  0  0  0
   10.3725   14.0786   21.0463 H    0  0  0  0  0  0  0  0  0  0  0  0
   10.9758   13.8617   19.0029 H    0  0  0  0  0  0  0  0  0  0  0  0
   10.8248   15.0905   17.7547 H    0  0  0  0  0  0  0  0  0  0  0  0
    8.3282   13.6700   25.5832 H    0  0  0  0  0  0  0  0  0  0  0  0
   10.0285   12.2377   24.0956 H    0  0  0  0  0  0  0  0  0  0  0  0
   10.6654    9.9083   23.6457 H    0  0  0  0  0  0  0  0  0  0  0  0
    9.0468    8.0565   24.0583 H    0  0  0  0  0  0  0  0  0  0  0  0
    6.8385    8.5645   25.0982 H    0  0  0  0  0  0  0  0  0  0  0  0
    6.1837   10.8748   25.5780 H    0  0  0  0  0  0  0  0  0  0  0  0
    6.1809   13.2543   26.5616 H    0  0  0  0  0  0  0  0  0  0  0  0
    5.4332   13.0891   24.9739 H    0  0  0  0  0  0  0  0  0  0  0  0
    6.1183   15.4394   24.5042 H    0  0  0  0  0  0  0  0  0  0  0  0
    3.8717   15.1978   24.8676 H    0  0  0  0  0  0  0  0  0  0  0  0
    4.1087   14.8661   26.6073 H    0  0  0  0  0  0  0  0  0  0  0  0
    4.2167   17.5214   25.1692 H    0  0  0  0  0  0  0  0  0  0  0  0
    3.7720   17.1810   26.8461 H    0  0  0  0  0  0  0  0  0  0  0  0
    6.3683   18.0296   25.8356 H    0  0  0  0  0  0  0  0  0  0  0  0
    5.9509   17.6769   27.5166 H    0  0  0  0  0  0  0  0  0  0  0  0
    7.7312   16.1257   26.0217 H    0  0  0  0  0  0  0  0  0  0  0  0
    6.8011   15.4920   27.4020 H    0  0  0  0  0  0  0  0  0  0  0  0
  2  1  2  0  0  0  0
  3  2  1  0  0  0  0
  4  3  1  0  0  0  0
 25  4  1  0  0  0  0
 26  4  1  0  0  0  0
  5  4  1  0  0  0  0
 27  5  1  0  0  0  0
 28  5  1  0  0  0  0
  6  5  1  0  0  0  0
 29  6  1  0  0  0  0
 30  6  1  0  0  0  0
  7  3  1  0  0  0  0
 31  7  1  0  0  0  0
 32  7  1  0  0  0  0
  8  6  1  0  0  0  0
  9  8  1  0  0  0  0
 33  8  1  0  0  0  0
 10  9  2  0  0  0  0
 11  9  1  0  0  0  0
 34 11  1  0  0  0  0
 35 11  1  0  0  0  0
 12  2  1  0  0  0  0
 19 12  1  0  0  0  0
 36 12  1  0  0  0  0
 13 12  1  0  0  0  0
 18 13  2  0  0  0  0
 14 13  1  0  0  0  0
 37 14  1  0  0  0  0
 15 14  2  0  0  0  0
 38 15  1  0  0  0  0
 16 15  1  0  0  0  0
 39 16  1  0  0  0  0
 17 16  2  0  0  0  0
 40 17  1  0  0  0  0
 41 18  1  0  0  0  0
 42 19  1  0  0  0  0
 43 19  1  0  0  0  0
 20 19  1  0  0  0  0
 24 20  1  0  0  0  0
 44 20  1  0  0  0  0
 21 20  1  0  0  0  0
 45 21  1  0  0  0  0
 46 21  1  0  0  0  0
 22 21  1  0  0  0  0
 47 22  1  0  0  0  0
 48 22  1  0  0  0  0
 23 22  1  0  0  0  0
 49 23  1  0  0  0  0
 50 23  1  0  0  0  0
 51 24  1  0  0  0  0
 52 24  1  0  0  0  0
  8  7  1  0  0  0  0
 18 17  1  0  0  0  0
 24 23  1  0  0  0  0
M  CHG  1  20   1
M  END
>  <FittedScore>
-35.81

$$$$
