A71EV2A-x3975a_lowest-energy
  FITTED

 52 54     0  0  0  0  0  0  0999 V2000
    6.8661   13.3510   22.5060 O    0  0  0  0  0  0  0  0  0  0  0  0
    7.6608   13.7860   23.3301 C    0  0  0  0  0  0  0  0  0  0  0  0
    8.6645   14.6700   22.9624 N    0  0  0  0  0  0  0  0  0  0  0  0
    9.6162   15.4010   23.8762 C    0  0  0  0  0  0  0  0  0  0  0  0
   11.0918   15.4769   23.3869 C    0  0  0  0  0  0  0  0  0  0  0  0
   11.1968   16.0045   21.9368 C    0  0  0  0  0  0  0  0  0  0  0  0
    8.8045   15.1567   21.5467 C    0  0  0  0  0  0  0  0  0  0  0  0
   10.2718   15.1729   21.0103 C    0  0  0  0  0  0  0  0  0  0  0  0
   10.3521   15.6634   19.5631 C    0  0  0  0  0  0  0  0  0  0  0  0
    9.8890   16.7224   19.1841 O    0  0  0  0  0  0  0  0  0  0  0  0
   10.8488   14.7768   18.6783 N    0  0  0  0  0  0  0  0  0  0  0  0
    7.5682   13.1921   24.7609 C    0  0  0  0  0  0  0  0  0  0  0  0
    8.0186   11.7165   24.6821 C    0  0  0  0  0  0  0  0  0  0  0  0
    9.2701   11.4111   24.0962 C    0  0  0  0  0  0  0  0  0  0  0  0
    9.6469   10.0830   23.8546 C    0  0  0  0  0  0  0  0  0  0  0  0
    8.7919    9.0379   24.2121 C    0  0  0  0  0  0  0  0  0  0  0  0
    7.5772    9.3215   24.8506 C    0  0  0  0  0  0  0  0  0  0  0  0
    7.1981   10.6454   25.1009 C    0  0  0  0  0  0  0  0  0  0  0  0
    6.1632   13.5179   25.3691 C    0  0  0  0  0  0  0  0  0  0  0  0
    5.8153   15.0034   25.3362 N    0  0  0  0  0  0  0  0  0  0  0  0
    4.3501   15.2787   25.5713 C    0  0  0  0  0  0  0  0  0  0  0  0
    4.2910   16.7765   25.9142 C    0  0  0  0  0  0  0  0  0  0  0  0
    5.6784   17.1303   26.4902 C    0  0  0  0  0  0  0  0  0  0  0  0
    6.5538   15.8728   26.3311 C    0  0  0  0  0  0  0  0  0  0  0  0
    9.2375   16.4171   24.0225 H    0  0  0  0  0  0  0  0  0  0  0  0
    9.6883   14.9765   24.8705 H    0  0  0  0  0  0  0  0  0  0  0  0
   11.6508   16.1403   24.0533 H    0  0  0  0  0  0  0  0  0  0  0  0
   11.5599   14.4872   23.4641 H    0  0  0  0  0  0  0  0  0  0  0  0
   10.9176   17.0609   21.9162 H    0  0  0  0  0  0  0  0  0  0  0  0
   12.2357   15.9369   21.5961 H    0  0  0  0  0  0  0  0  0  0  0  0
    8.3644   16.1587   21.4935 H    0  0  0  0  0  0  0  0  0  0  0  0
    8.2250   14.5483   20.8456 H    0  0  0  0  0  0  0  0  0  0  0  0
   10.6206   14.1318   21.0517 H    0  0  0  0  0  0  0  0  0  0  0  0
   11.0520   13.8175   18.9569 H    0  0  0  0  0  0  0  0  0  0  0  0
   10.8610   15.0077   17.6954 H    0  0  0  0  0  0  0  0  0  0  0  0
    8.2549   13.6193   25.4793 H    0  0  0  0  0  0  0  0  0  0  0  0
    9.9509   12.2013   23.7907 H    0  0  0  0  0  0  0  0  0  0  0  0
   10.6020    9.8709   23.3834 H    0  0  0  0  0  0  0  0  0  0  0  0
    9.0763    8.0053   24.0078 H    0  0  0  0  0  0  0  0  0  0  0  0
    6.9169    8.5125   25.1437 H    0  0  0  0  0  0  0  0  0  0  0  0
    6.2448   10.8115   25.5916 H    0  0  0  0  0  0  0  0  0  0  0  0
    6.0973   13.1640   26.4031 H    0  0  0  0  0  0  0  0  0  0  0  0
    5.4009   12.9844   24.7937 H    0  0  0  0  0  0  0  0  0  0  0  0
    6.0199   15.3754   24.3840 H    0  0  0  0  0  0  0  0  0  0  0  0
    3.7814   15.0360   24.6655 H    0  0  0  0  0  0  0  0  0  0  0  0
    3.9762   14.6754   26.4084 H    0  0  0  0  0  0  0  0  0  0  0  0
    4.0898   17.3658   25.0151 H    0  0  0  0  0  0  0  0  0  0  0  0
    3.4938   16.9739   26.6343 H    0  0  0  0  0  0  0  0  0  0  0  0
    6.1152   17.9750   25.9517 H    0  0  0  0  0  0  0  0  0  0  0  0
    5.6032   17.4073   27.5447 H    0  0  0  0  0  0  0  0  0  0  0  0
    7.5464   16.1180   25.9496 H    0  0  0  0  0  0  0  0  0  0  0  0
    6.6584   15.3501   27.2872 H    0  0  0  0  0  0  0  0  0  0  0  0
  2  1  2  0  0  0  0
  3  2  1  0  0  0  0
  4  3  1  0  0  0  0
 25  4  1  0  0  0  0
 26  4  1  0  0  0  0
  5  4  1  0  0  0  0
 27  5  1  0  0  0  0
 28  5  1  0  0  0  0
  6  5  1  0  0  0  0
 29  6  1  0  0  0  0
 30  6  1  0  0  0  0
  7  3  1  0  0  0  0
 31  7  1  0  0  0  0
 32  7  1  0  0  0  0
  8  6  1  0  0  0  0
  9  8  1  0  0  0  0
 33  8  1  0  0  0  0
 10  9  2  0  0  0  0
 11  9  1  0  0  0  0
 34 11  1  0  0  0  0
 35 11  1  0  0  0  0
 12  2  1  0  0  0  0
 19 12  1  0  0  0  0
 36 12  1  0  0  0  0
 13 12  1  0  0  0  0
 18 13  2  0  0  0  0
 14 13  1  0  0  0  0
 37 14  1  0  0  0  0
 15 14  2  0  0  0  0
 38 15  1  0  0  0  0
 16 15  1  0  0  0  0
 39 16  1  0  0  0  0
 17 16  2  0  0  0  0
 40 17  1  0  0  0  0
 41 18  1  0  0  0  0
 42 19  1  0  0  0  0
 43 19  1  0  0  0  0
 20 19  1  0  0  0  0
 24 20  1  0  0  0  0
 44 20  1  0  0  0  0
 21 20  1  0  0  0  0
 45 21  1  0  0  0  0
 46 21  1  0  0  0  0
 22 21  1  0  0  0  0
 47 22  1  0  0  0  0
 48 22  1  0  0  0  0
 23 22  1  0  0  0  0
 49 23  1  0  0  0  0
 50 23  1  0  0  0  0
 51 24  1  0  0  0  0
 52 24  1  0  0  0  0
  8  7  1  0  0  0  0
 18 17  1  0  0  0  0
 24 23  1  0  0  0  0
M  CHG  1  20   1
M  END
>  <FittedScore>
-36.07

$$$$
