A71EV2A-x5212a_lowest-energy
  FITTED

 35 36     0  0  0  0  0  0  0999 V2000
    9.6711   16.7709   19.0688 O    0  0  0  0  0  0  0  0  0  0  0  0
   10.2761   15.8009   19.4861 C    0  0  0  0  0  0  0  0  0  0  0  0
   10.7388   14.8701   18.6427 N    0  0  0  0  0  0  0  0  0  0  0  0
   10.3984   15.4072   20.9527 C    0  0  0  0  0  0  0  0  0  0  0  0
   11.3108   16.3999   21.7143 C    0  0  0  0  0  0  0  0  0  0  0  0
   11.4117   15.9893   23.2023 C    0  0  0  0  0  0  0  0  0  0  0  0
   10.0164   15.7720   23.8461 C    0  0  0  0  0  0  0  0  0  0  0  0
    9.0149   15.2411   21.6414 C    0  0  0  0  0  0  0  0  0  0  0  0
    9.1016   14.8385   23.0865 N    0  0  0  0  0  0  0  0  0  0  0  0
    8.3260   13.8286   23.6273 C    0  0  0  0  0  0  0  0  0  0  0  0
    7.5467   13.1867   22.9327 O    0  0  0  0  0  0  0  0  0  0  0  0
    8.4337   13.5229   25.1333 C    0  0  0  0  0  0  0  0  0  0  0  0
    7.3848   12.5458   25.6717 C    0  0  0  0  0  0  0  0  0  0  0  0
    7.4633   11.1427   25.4779 C    0  0  0  0  0  0  0  0  0  0  0  0
    8.5557   10.5364   24.7463 C    0  0  0  0  0  0  0  0  0  0  0  0
    9.4205   10.0768   24.1630 N    0  0  0  0  0  0  0  0  0  0  0  0
    6.2656   13.0435   26.3737 C    0  0  0  0  0  0  0  0  0  0  0  0
    5.2978   12.2211   26.8631 N    0  0  0  0  0  0  0  0  0  0  0  0
    5.4475   10.8844   26.6424 C    0  0  0  0  0  0  0  0  0  0  0  0
    6.4885   10.3222   25.9625 N    0  0  0  0  0  0  0  0  0  0  0  0
   10.7374   15.0443   17.6470 H    0  0  0  0  0  0  0  0  0  0  0  0
   10.9760   13.9408   18.9903 H    0  0  0  0  0  0  0  0  0  0  0  0
   10.8790   14.4207   21.0296 H    0  0  0  0  0  0  0  0  0  0  0  0
   12.3096   16.4016   21.2687 H    0  0  0  0  0  0  0  0  0  0  0  0
   10.9215   17.4197   21.6353 H    0  0  0  0  0  0  0  0  0  0  0  0
   12.0082   15.0760   23.2908 H    0  0  0  0  0  0  0  0  0  0  0  0
   11.9500   16.7685   23.7495 H    0  0  0  0  0  0  0  0  0  0  0  0
   10.2212   15.4441   24.8630 H    0  0  0  0  0  0  0  0  0  0  0  0
    9.5166   16.7393   23.9456 H    0  0  0  0  0  0  0  0  0  0  0  0
    8.4463   14.5207   21.0467 H    0  0  0  0  0  0  0  0  0  0  0  0
    8.4515   16.1779   21.5787 H    0  0  0  0  0  0  0  0  0  0  0  0
    9.4331   13.1336   25.3544 H    0  0  0  0  0  0  0  0  0  0  0  0
    8.3473   14.4489   25.7089 H    0  0  0  0  0  0  0  0  0  0  0  0
    6.1601   14.1146   26.5289 H    0  0  0  0  0  0  0  0  0  0  0  0
    4.6791   10.2182   27.0282 H    0  0  0  0  0  0  0  0  0  0  0  0
  7  9  1  0  0  0  0
  6  7  1  0  0  0  0
  5  6  1  0  0  0  0
  4  5  1  0  0  0  0
  2  4  1  0  0  0  0
  1  2  2  0  0  0  0
  3  2  1  0  0  0  0
 21  3  1  0  0  0  0
 22  3  1  0  0  0  0
 23  4  1  0  0  0  0
 24  5  1  0  0  0  0
 25  5  1  0  0  0  0
 26  6  1  0  0  0  0
 27  6  1  0  0  0  0
 28  7  1  0  0  0  0
 29  7  1  0  0  0  0
  8  4  1  0  0  0  0
 30  8  1  0  0  0  0
 31  8  1  0  0  0  0
 10  9  1  0  0  0  0
 11 10  2  0  0  0  0
 12 10  1  0  0  0  0
 32 12  1  0  0  0  0
 33 12  1  0  0  0  0
 13 12  1  0  0  0  0
 14 13  1  0  0  0  0
 20 14  2  0  0  0  0
 15 14  1  0  0  0  0
 16 15  3  0  0  0  0
 17 13  2  0  0  0  0
 34 17  1  0  0  0  0
 18 17  1  0  0  0  0
 19 18  2  0  0  0  0
 35 19  1  0  0  0  0
  9  8  1  0  0  0  0
 20 19  1  0  0  0  0
M  END
>  <FittedScore>
-29.91

$$$$
