A71EV2A-x5212a_best-RMSD
  FITTED

 35 36     0  0  0  0  0  0  0999 V2000
    9.6598   16.7990   19.1334 O    0  0  0  0  0  0  0  0  0  0  0  0
   10.2397   15.8029   19.5291 C    0  0  0  0  0  0  0  0  0  0  0  0
   10.7138   14.9002   18.6590 N    0  0  0  0  0  0  0  0  0  0  0  0
   10.3779   15.3896   20.9891 C    0  0  0  0  0  0  0  0  0  0  0  0
   11.3932   16.2982   21.7354 C    0  0  0  0  0  0  0  0  0  0  0  0
   11.4979   15.8620   23.2177 C    0  0  0  0  0  0  0  0  0  0  0  0
   10.1032   15.7472   23.8889 C    0  0  0  0  0  0  0  0  0  0  0  0
    9.0073   15.3370   21.7151 C    0  0  0  0  0  0  0  0  0  0  0  0
    9.1265   14.8749   23.1371 N    0  0  0  0  0  0  0  0  0  0  0  0
    8.3865   13.8211   23.6359 C    0  0  0  0  0  0  0  0  0  0  0  0
    7.5852   13.2089   22.9372 O    0  0  0  0  0  0  0  0  0  0  0  0
    8.5802   13.4112   25.1044 C    0  0  0  0  0  0  0  0  0  0  0  0
    7.5378   12.4228   25.6318 C    0  0  0  0  0  0  0  0  0  0  0  0
    7.5760   11.0356   25.3568 C    0  0  0  0  0  0  0  0  0  0  0  0
    8.6264   10.4306   24.5669 C    0  0  0  0  0  0  0  0  0  0  0  0
    9.4539    9.9605   23.9445 N    0  0  0  0  0  0  0  0  0  0  0  0
    6.4551   12.8998   26.4056 C    0  0  0  0  0  0  0  0  0  0  0  0
    5.4898   12.0684   26.8862 N    0  0  0  0  0  0  0  0  0  0  0  0
    5.6005   10.7475   26.5787 C    0  0  0  0  0  0  0  0  0  0  0  0
    6.5995   10.2111   25.8216 N    0  0  0  0  0  0  0  0  0  0  0  0
   10.6826   15.0747   17.6657 H    0  0  0  0  0  0  0  0  0  0  0  0
   10.9658   13.9647   18.9756 H    0  0  0  0  0  0  0  0  0  0  0  0
   10.7822   14.3685   21.0484 H    0  0  0  0  0  0  0  0  0  0  0  0
   12.3778   16.2178   21.2653 H    0  0  0  0  0  0  0  0  0  0  0  0
   11.0886   17.3477   21.6734 H    0  0  0  0  0  0  0  0  0  0  0  0
   12.0171   14.8986   23.2805 H    0  0  0  0  0  0  0  0  0  0  0  0
   12.1114   16.5823   23.7642 H    0  0  0  0  0  0  0  0  0  0  0  0
   10.2968   15.4097   24.9060 H    0  0  0  0  0  0  0  0  0  0  0  0
    9.6713   16.7486   23.9936 H    0  0  0  0  0  0  0  0  0  0  0  0
    8.3303   14.7078   21.1303 H    0  0  0  0  0  0  0  0  0  0  0  0
    8.5471   16.3300   21.7070 H    0  0  0  0  0  0  0  0  0  0  0  0
    9.5837   12.9918   25.2257 H    0  0  0  0  0  0  0  0  0  0  0  0
    8.5452   14.2948   25.7469 H    0  0  0  0  0  0  0  0  0  0  0  0
    6.3816   13.9598   26.6301 H    0  0  0  0  0  0  0  0  0  0  0  0
    4.8473   10.0662   26.9639 H    0  0  0  0  0  0  0  0  0  0  0  0
  7  9  1  0  0  0  0
  6  7  1  0  0  0  0
  5  6  1  0  0  0  0
  4  5  1  0  0  0  0
  2  4  1  0  0  0  0
  1  2  2  0  0  0  0
  3  2  1  0  0  0  0
 21  3  1  0  0  0  0
 22  3  1  0  0  0  0
 23  4  1  0  0  0  0
 24  5  1  0  0  0  0
 25  5  1  0  0  0  0
 26  6  1  0  0  0  0
 27  6  1  0  0  0  0
 28  7  1  0  0  0  0
 29  7  1  0  0  0  0
  8  4  1  0  0  0  0
 30  8  1  0  0  0  0
 31  8  1  0  0  0  0
 10  9  1  0  0  0  0
 11 10  2  0  0  0  0
 12 10  1  0  0  0  0
 32 12  1  0  0  0  0
 33 12  1  0  0  0  0
 13 12  1  0  0  0  0
 14 13  1  0  0  0  0
 20 14  2  0  0  0  0
 15 14  1  0  0  0  0
 16 15  3  0  0  0  0
 17 13  2  0  0  0  0
 34 17  1  0  0  0  0
 18 17  1  0  0  0  0
 19 18  2  0  0  0  0
 35 19  1  0  0  0  0
  9  8  1  0  0  0  0
 20 19  1  0  0  0  0
M  END
>  <FittedScore>
-29.79

$$$$
