A71EV2A-x5255a_best-RMSD
  FITTED

 40 42     0  0  0  0  0  0  0999 V2000
   10.2201   17.0682   18.9708 O    0  0  0  0  0  0  0  0  0  0  0  0
   10.4405   16.0094   19.5229 C    0  0  0  0  0  0  0  0  0  0  0  0
   10.4288   14.9413   18.7014 N    0  0  0  0  0  0  0  0  0  0  0  0
   10.3878   15.6025   21.0259 C    0  0  0  0  0  0  0  0  0  0  0  0
   11.1718   16.7681   21.7401 C    0  0  0  0  0  0  0  0  0  0  0  0
   11.7475   14.8125   21.2229 C    0  0  0  0  0  0  0  0  0  0  0  0
   11.7137   15.5649   22.6110 C    0  0  0  0  0  0  0  0  0  0  0  0
   10.6800   14.9725   23.6367 C    0  0  0  0  0  0  0  0  0  0  0  0
    9.0919   15.0831   21.6726 C    0  0  0  0  0  0  0  0  0  0  0  0
    9.4365   14.3995   22.9712 N    0  0  0  0  0  0  0  0  0  0  0  0
    8.6507   13.3784   23.4648 C    0  0  0  0  0  0  0  0  0  0  0  0
    7.6231   13.0353   22.8922 O    0  0  0  0  0  0  0  0  0  0  0  0
    9.0910   12.6725   24.7603 C    0  0  0  0  0  0  0  0  0  0  0  0
    8.0778   11.6434   25.2726 C    0  0  0  0  0  0  0  0  0  0  0  0
    8.0993   10.2829   24.8622 C    0  0  0  0  0  0  0  0  0  0  0  0
    9.1635    9.7150   23.9245 C    0  0  0  0  0  0  0  0  0  0  0  0
    7.0379   12.1009   26.1052 C    0  0  0  0  0  0  0  0  0  0  0  0
    6.0502   11.2225   26.5603 C    0  0  0  0  0  0  0  0  0  0  0  0
    6.0841    9.8831   26.1722 C    0  0  0  0  0  0  0  0  0  0  0  0
    7.0936    9.4208   25.3227 C    0  0  0  0  0  0  0  0  0  0  0  0
   10.5192   15.0638   17.7046 H    0  0  0  0  0  0  0  0  0  0  0  0
   10.3952   14.0060   19.0870 H    0  0  0  0  0  0  0  0  0  0  0  0
   11.9442   17.3254   21.1901 H    0  0  0  0  0  0  0  0  0  0  0  0
   10.5657   17.5137   22.2705 H    0  0  0  0  0  0  0  0  0  0  0  0
   12.6036   15.0580   20.5809 H    0  0  0  0  0  0  0  0  0  0  0  0
   11.6620   13.7223   21.2488 H    0  0  0  0  0  0  0  0  0  0  0  0
   12.6977   15.7114   23.0781 H    0  0  0  0  0  0  0  0  0  0  0  0
   11.2236   14.2320   24.2305 H    0  0  0  0  0  0  0  0  0  0  0  0
   10.3677   15.7663   24.3254 H    0  0  0  0  0  0  0  0  0  0  0  0
    8.6006   14.4195   20.9593 H    0  0  0  0  0  0  0  0  0  0  0  0
    8.4144   15.9169   21.8569 H    0  0  0  0  0  0  0  0  0  0  0  0
   10.0657   12.1973   24.6258 H    0  0  0  0  0  0  0  0  0  0  0  0
    9.2495   13.4286   25.5371 H    0  0  0  0  0  0  0  0  0  0  0  0
    9.2358   10.3133   23.0138 H    0  0  0  0  0  0  0  0  0  0  0  0
    8.9546    8.6861   23.6203 H    0  0  0  0  0  0  0  0  0  0  0  0
   10.1427    9.7072   24.4114 H    0  0  0  0  0  0  0  0  0  0  0  0
    6.9887   13.1483   26.4003 H    0  0  0  0  0  0  0  0  0  0  0  0
    5.2629   11.5816   27.2154 H    0  0  0  0  0  0  0  0  0  0  0  0
    5.3242    9.1905   26.5281 H    0  0  0  0  0  0  0  0  0  0  0  0
    7.0928    8.3736   25.0303 H    0  0  0  0  0  0  0  0  0  0  0  0
 10 11  1  0  0  0  0
  8 10  1  0  0  0  0
  7  8  1  0  0  0  0
  5  7  1  0  0  0  0
  4  5  1  0  0  0  0
  2  4  1  0  0  0  0
  1  2  2  0  0  0  0
  3  2  1  0  0  0  0
 21  3  1  0  0  0  0
 22  3  1  0  0  0  0
 23  5  1  0  0  0  0
 24  5  1  0  0  0  0
  6  4  1  0  0  0  0
 25  6  1  0  0  0  0
 26  6  1  0  0  0  0
 27  7  1  0  0  0  0
 28  8  1  0  0  0  0
 29  8  1  0  0  0  0
  9  4  1  0  0  0  0
 30  9  1  0  0  0  0
 31  9  1  0  0  0  0
 12 11  2  0  0  0  0
 13 11  1  0  0  0  0
 32 13  1  0  0  0  0
 33 13  1  0  0  0  0
 14 13  1  0  0  0  0
 15 14  1  0  0  0  0
 20 15  2  0  0  0  0
 16 15  1  0  0  0  0
 34 16  1  0  0  0  0
 35 16  1  0  0  0  0
 36 16  1  0  0  0  0
 17 14  2  0  0  0  0
 37 17  1  0  0  0  0
 18 17  1  0  0  0  0
 38 18  1  0  0  0  0
 19 18  2  0  0  0  0
 39 19  1  0  0  0  0
 40 20  1  0  0  0  0
  7  6  1  0  0  0  0
 10  9  1  0  0  0  0
 20 19  1  0  0  0  0
M  END
>  <FittedScore>
-25.45

$$$$
