A71EV2A-x7025a_lowest-energy
  FITTED

 54 56     0  0  0  0  0  0  0999 V2000
    9.6969    8.5731   23.3682 C    0  0  0  0  0  0  0  0  0  0  0  0
    9.5576   10.3358   23.7981 S    0  0  0  0  0  0  0  0  0  0  0  0
    8.1206   10.4724   24.8499 C    0  0  0  0  0  0  0  0  0  0  0  0
    7.4592    9.3196   25.1632 N    0  0  0  0  0  0  0  0  0  0  0  0
    6.3628    9.4111   25.9540 C    0  0  0  0  0  0  0  0  0  0  0  0
    5.8504   10.5761   26.4268 N    0  0  0  0  0  0  0  0  0  0  0  0
    6.4807   11.7341   26.1179 C    0  0  0  0  0  0  0  0  0  0  0  0
    5.8719   12.8589   26.6304 N    0  0  0  0  0  0  0  0  0  0  0  0
    6.2625   13.4134   27.9266 C    0  0  0  0  0  0  0  0  0  0  0  0
    6.2434   14.9431   27.7372 C    0  0  0  0  0  0  0  0  0  0  0  0
    5.5409   15.2184   26.3855 C    0  0  0  0  0  0  0  0  0  0  0  0
    6.4436   15.9173   25.4781 O    0  0  0  0  0  0  0  0  0  0  0  0
    5.8803   16.8607   24.5253 C    0  0  0  0  0  0  0  0  0  0  0  0
    6.8417   17.2224   23.6810 F    0  0  0  0  0  0  0  0  0  0  0  0
    4.8885   16.3467   23.7746 F    0  0  0  0  0  0  0  0  0  0  0  0
    5.1701   13.8390   25.7981 C    0  0  0  0  0  0  0  0  0  0  0  0
    7.6745   11.7319   25.3398 C    0  0  0  0  0  0  0  0  0  0  0  0
    8.4489   13.0242   25.0208 C    0  0  0  0  0  0  0  0  0  0  0  0
    8.1603   13.6179   23.6351 C    0  0  0  0  0  0  0  0  0  0  0  0
    7.3486   13.0796   22.8961 O    0  0  0  0  0  0  0  0  0  0  0  0
    8.9145   14.6947   23.2134 N    0  0  0  0  0  0  0  0  0  0  0  0
    9.9235   15.4663   24.0250 C    0  0  0  0  0  0  0  0  0  0  0  0
   11.3616   15.3104   23.4573 C    0  0  0  0  0  0  0  0  0  0  0  0
   11.4163   15.7374   21.9626 C    0  0  0  0  0  0  0  0  0  0  0  0
   10.3018   15.0307   21.1291 C    0  0  0  0  0  0  0  0  0  0  0  0
   10.3085   15.5328   19.6917 C    0  0  0  0  0  0  0  0  0  0  0  0
   10.8426   14.7056   18.7628 N    0  0  0  0  0  0  0  0  0  0  0  0
    9.8034   16.5891   19.3685 O    0  0  0  0  0  0  0  0  0  0  0  0
    8.9037   15.2000   21.8063 C    0  0  0  0  0  0  0  0  0  0  0  0
   10.5662    8.4307   22.7228 H    0  0  0  0  0  0  0  0  0  0  0  0
    8.8045    8.2476   22.8289 H    0  0  0  0  0  0  0  0  0  0  0  0
    9.8271    7.9745   24.2701 H    0  0  0  0  0  0  0  0  0  0  0  0
    5.8520    8.4879   26.2210 H    0  0  0  0  0  0  0  0  0  0  0  0
    7.2609   13.0867   28.2353 H    0  0  0  0  0  0  0  0  0  0  0  0
    5.5592   13.1163   28.7032 H    0  0  0  0  0  0  0  0  0  0  0  0
    7.2643   15.3348   27.7559 H    0  0  0  0  0  0  0  0  0  0  0  0
    5.6909   15.4189   28.5547 H    0  0  0  0  0  0  0  0  0  0  0  0
    4.6398   15.8167   26.5652 H    0  0  0  0  0  0  0  0  0  0  0  0
    5.5165   17.7439   25.0484 H    0  0  0  0  0  0  0  0  0  0  0  0
    5.4381   13.7634   24.7416 H    0  0  0  0  0  0  0  0  0  0  0  0
    4.0887   13.6923   25.8520 H    0  0  0  0  0  0  0  0  0  0  0  0
    9.5209   12.8319   25.1185 H    0  0  0  0  0  0  0  0  0  0  0  0
    8.2543   13.7745   25.7832 H    0  0  0  0  0  0  0  0  0  0  0  0
    9.9360   15.2077   25.0822 H    0  0  0  0  0  0  0  0  0  0  0  0
    9.6491   16.5277   24.0196 H    0  0  0  0  0  0  0  0  0  0  0  0
   11.6959   14.2722   23.5593 H    0  0  0  0  0  0  0  0  0  0  0  0
   12.0643   15.9190   24.0333 H    0  0  0  0  0  0  0  0  0  0  0  0
   12.3965   15.4846   21.5502 H    0  0  0  0  0  0  0  0  0  0  0  0
   11.3090   16.8265   21.8936 H    0  0  0  0  0  0  0  0  0  0  0  0
   10.5210   13.9557   21.1280 H    0  0  0  0  0  0  0  0  0  0  0  0
   11.1010   13.7499   19.0177 H    0  0  0  0  0  0  0  0  0  0  0  0
   10.8178   14.9596   17.7793 H    0  0  0  0  0  0  0  0  0  0  0  0
    8.1482   14.7165   21.1813 H    0  0  0  0  0  0  0  0  0  0  0  0
    8.6245   16.2576   21.8103 H    0  0  0  0  0  0  0  0  0  0  0  0
 17 18  1  0  0  0  0
  7 17  2  0  0  0  0
  6  7  1  0  0  0  0
  5  6  2  0  0  0  0
  4  5  1  0  0  0  0
  3  4  2  0  0  0  0
  2  3  1  0  0  0  0
  1  2  1  0  0  0  0
 30  1  1  0  0  0  0
 31  1  1  0  0  0  0
 32  1  1  0  0  0  0
 33  5  1  0  0  0  0
  8  7  1  0  0  0  0
  9  8  1  0  0  0  0
 10  9  1  0  0  0  0
 34  9  1  0  0  0  0
 35  9  1  0  0  0  0
 11 10  1  0  0  0  0
 36 10  1  0  0  0  0
 37 10  1  0  0  0  0
 12 11  1  0  0  0  0
 16 11  1  0  0  0  0
 38 11  1  0  0  0  0
 13 12  1  0  0  0  0
 14 13  1  0  0  0  0
 15 13  1  0  0  0  0
 39 13  1  0  0  0  0
 40 16  1  0  0  0  0
 41 16  1  0  0  0  0
 19 18  1  0  0  0  0
 42 18  1  0  0  0  0
 43 18  1  0  0  0  0
 20 19  2  0  0  0  0
 21 19  1  0  0  0  0
 22 21  1  0  0  0  0
 23 22  1  0  0  0  0
 44 22  1  0  0  0  0
 45 22  1  0  0  0  0
 24 23  1  0  0  0  0
 46 23  1  0  0  0  0
 47 23  1  0  0  0  0
 25 24  1  0  0  0  0
 48 24  1  0  0  0  0
 49 24  1  0  0  0  0
 26 25  1  0  0  0  0
 29 25  1  0  0  0  0
 50 25  1  0  0  0  0
 27 26  1  0  0  0  0
 28 26  2  0  0  0  0
 51 27  1  0  0  0  0
 52 27  1  0  0  0  0
 53 29  1  0  0  0  0
 54 29  1  0  0  0  0
 16  8  1  0  0  0  0
 17  3  1  0  0  0  0
 29 21  1  0  0  0  0
M  END
>  <FittedScore>
-36.88

$$$$
