A71EV2A-x3419a_best-RMSD
  FITTED

 36 38     0  0  0  0  0  0  0999 V2000
    7.9355    8.5150   24.8868 O    0  0  0  0  0  0  0  0  0  0  0  0
    8.3840    9.6171   24.6571 C    0  0  0  0  0  0  0  0  0  0  0  0
    9.4138    9.8080   23.7798 N    0  0  0  0  0  0  0  0  0  0  0  0
   10.0274    8.6909   23.0381 C    0  0  0  0  0  0  0  0  0  0  0  0
    7.7848   10.8654   25.2578 C    0  0  0  0  0  0  0  0  0  0  0  0
    6.6609   10.7752   26.1146 C    0  0  0  0  0  0  0  0  0  0  0  0
    6.0491   11.9296   26.5980 C    0  0  0  0  0  0  0  0  0  0  0  0
    6.5390   13.1820   26.2205 C    0  0  0  0  0  0  0  0  0  0  0  0
    7.6551   13.2860   25.3788 C    0  0  0  0  0  0  0  0  0  0  0  0
    8.3327   12.1304   24.9225 C    0  0  0  0  0  0  0  0  0  0  0  0
    9.5734   12.1612   24.0296 C    0  0  0  0  0  0  0  0  0  0  0  0
    9.9406   11.0448   23.4560 N    0  0  0  0  0  0  0  0  0  0  0  0
   10.4103   13.3229   23.8517 C    0  0  0  0  0  0  0  0  0  0  0  0
   10.3967   14.2263   24.6656 O    0  0  0  0  0  0  0  0  0  0  0  0
   11.2951   13.3292   22.8098 N    0  0  0  0  0  0  0  0  0  0  0  0
   12.3423   14.3429   22.5783 C    0  0  0  0  0  0  0  0  0  0  0  0
   12.3974   14.8096   21.1161 C    0  0  0  0  0  0  0  0  0  0  0  0
   11.0939   15.3193   20.5187 C    0  0  0  0  0  0  0  0  0  0  0  0
   10.0456   16.0395   21.2540 N    0  0  0  0  0  0  0  0  0  0  0  0
    9.1225   16.3538   20.1618 C    0  0  0  0  0  0  0  0  0  0  0  0
    9.5435   15.8587   18.9578 O    0  0  0  0  0  0  0  0  0  0  0  0
   10.7503   15.2439   19.1772 C    0  0  0  0  0  0  0  0  0  0  0  0
    9.2824    8.2286   22.3828 H    0  0  0  0  0  0  0  0  0  0  0  0
   10.3559    7.9201   23.7385 H    0  0  0  0  0  0  0  0  0  0  0  0
   10.8957    8.9726   22.4362 H    0  0  0  0  0  0  0  0  0  0  0  0
    6.2458    9.8090   26.3876 H    0  0  0  0  0  0  0  0  0  0  0  0
    5.1779   11.8551   27.2461 H    0  0  0  0  0  0  0  0  0  0  0  0
    6.0494   14.0857   26.5680 H    0  0  0  0  0  0  0  0  0  0  0  0
    7.9630   14.2813   25.0910 H    0  0  0  0  0  0  0  0  0  0  0  0
   11.2405   12.5664   22.1278 H    0  0  0  0  0  0  0  0  0  0  0  0
   13.3076   13.9142   22.8641 H    0  0  0  0  0  0  0  0  0  0  0  0
   12.1913   15.2216   23.2140 H    0  0  0  0  0  0  0  0  0  0  0  0
   12.7806   13.9877   20.4973 H    0  0  0  0  0  0  0  0  0  0  0  0
   13.1358   15.6146   21.0484 H    0  0  0  0  0  0  0  0  0  0  0  0
    8.2112   16.9232   20.3155 H    0  0  0  0  0  0  0  0  0  0  0  0
   11.3502   14.7895   18.3948 H    0  0  0  0  0  0  0  0  0  0  0  0
 10 11  1  0  0  0  0
  9 10  2  0  0  0  0
  8  9  1  0  0  0  0
  7  8  2  0  0  0  0
  6  7  1  0  0  0  0
  5  6  2  0  0  0  0
  2  5  1  0  0  0  0
  1  2  2  0  0  0  0
  3  2  1  0  0  0  0
 12  3  1  0  0  0  0
  4  3  1  0  0  0  0
 23  4  1  0  0  0  0
 24  4  1  0  0  0  0
 25  4  1  0  0  0  0
 26  6  1  0  0  0  0
 27  7  1  0  0  0  0
 28  8  1  0  0  0  0
 29  9  1  0  0  0  0
 13 11  1  0  0  0  0
 14 13  2  0  0  0  0
 15 13  1  0  0  0  0
 30 15  1  0  0  0  0
 16 15  1  0  0  0  0
 31 16  1  0  0  0  0
 32 16  1  0  0  0  0
 17 16  1  0  0  0  0
 33 17  1  0  0  0  0
 34 17  1  0  0  0  0
 18 17  1  0  0  0  0
 22 18  2  0  0  0  0
 19 18  1  0  0  0  0
 20 19  2  0  0  0  0
 35 20  1  0  0  0  0
 21 20  1  0  0  0  0
 36 22  1  0  0  0  0
 10  5  1  0  0  0  0
 12 11  2  0  0  0  0
 22 21  1  0  0  0  0
M  END
>  <FittedScore>
-35.62

$$$$
