A71EV2A-x3419a_lowest-energy
  FITTED

 36 38     0  0  0  0  0  0  0999 V2000
    8.0004    8.5313   24.8416 O    0  0  0  0  0  0  0  0  0  0  0  0
    8.4774    9.6227   24.6181 C    0  0  0  0  0  0  0  0  0  0  0  0
    9.5268    9.7899   23.7521 N    0  0  0  0  0  0  0  0  0  0  0  0
   10.1683    8.6659   23.0385 C    0  0  0  0  0  0  0  0  0  0  0  0
    7.9076   10.8925   25.2094 C    0  0  0  0  0  0  0  0  0  0  0  0
    6.7984   10.8286   26.0778 C    0  0  0  0  0  0  0  0  0  0  0  0
    6.2128   11.9998   26.5663 C    0  0  0  0  0  0  0  0  0  0  0  0
    6.7114   13.2438   26.1667 C    0  0  0  0  0  0  0  0  0  0  0  0
    7.8149   13.3181   25.3065 C    0  0  0  0  0  0  0  0  0  0  0  0
    8.4720   12.1449   24.8585 C    0  0  0  0  0  0  0  0  0  0  0  0
    9.7221   12.1443   23.9831 C    0  0  0  0  0  0  0  0  0  0  0  0
   10.0958   11.0119   23.4446 N    0  0  0  0  0  0  0  0  0  0  0  0
   10.5647   13.2972   23.8015 C    0  0  0  0  0  0  0  0  0  0  0  0
   10.5828   14.1773   24.6387 O    0  0  0  0  0  0  0  0  0  0  0  0
   11.3935   13.3454   22.7199 N    0  0  0  0  0  0  0  0  0  0  0  0
   12.3846   14.4089   22.4403 C    0  0  0  0  0  0  0  0  0  0  0  0
   12.3449   14.8714   20.9705 C    0  0  0  0  0  0  0  0  0  0  0  0
   11.0081   15.3834   20.4536 C    0  0  0  0  0  0  0  0  0  0  0  0
    9.9242   15.9393   21.2805 N    0  0  0  0  0  0  0  0  0  0  0  0
    8.9818   16.3621   20.2379 C    0  0  0  0  0  0  0  0  0  0  0  0
    9.4063   16.0048   18.9853 O    0  0  0  0  0  0  0  0  0  0  0  0
   10.6561   15.4551   19.1194 C    0  0  0  0  0  0  0  0  0  0  0  0
   10.6256    7.9824   23.7612 H    0  0  0  0  0  0  0  0  0  0  0  0
   10.9515    8.9771   22.3425 H    0  0  0  0  0  0  0  0  0  0  0  0
    9.4183    8.1150   22.4672 H    0  0  0  0  0  0  0  0  0  0  0  0
    6.3707    9.8705   26.3700 H    0  0  0  0  0  0  0  0  0  0  0  0
    5.3593   11.9382   27.2382 H    0  0  0  0  0  0  0  0  0  0  0  0
    6.2403   14.1580   26.5166 H    0  0  0  0  0  0  0  0  0  0  0  0
    8.1414   14.3048   24.9972 H    0  0  0  0  0  0  0  0  0  0  0  0
   11.2846   12.6230   22.0095 H    0  0  0  0  0  0  0  0  0  0  0  0
   13.3799   14.0170   22.6757 H    0  0  0  0  0  0  0  0  0  0  0  0
   12.2448   15.2842   23.0796 H    0  0  0  0  0  0  0  0  0  0  0  0
   12.6742   14.0290   20.3526 H    0  0  0  0  0  0  0  0  0  0  0  0
   13.0878   15.6632   20.8351 H    0  0  0  0  0  0  0  0  0  0  0  0
    8.0791   16.9241   20.4682 H    0  0  0  0  0  0  0  0  0  0  0  0
   11.2841   15.1521   18.2865 H    0  0  0  0  0  0  0  0  0  0  0  0
 10 11  1  0  0  0  0
  9 10  2  0  0  0  0
  8  9  1  0  0  0  0
  7  8  2  0  0  0  0
  6  7  1  0  0  0  0
  5  6  2  0  0  0  0
  2  5  1  0  0  0  0
  1  2  2  0  0  0  0
  3  2  1  0  0  0  0
 12  3  1  0  0  0  0
  4  3  1  0  0  0  0
 23  4  1  0  0  0  0
 24  4  1  0  0  0  0
 25  4  1  0  0  0  0
 26  6  1  0  0  0  0
 27  7  1  0  0  0  0
 28  8  1  0  0  0  0
 29  9  1  0  0  0  0
 13 11  1  0  0  0  0
 14 13  2  0  0  0  0
 15 13  1  0  0  0  0
 30 15  1  0  0  0  0
 16 15  1  0  0  0  0
 31 16  1  0  0  0  0
 32 16  1  0  0  0  0
 17 16  1  0  0  0  0
 33 17  1  0  0  0  0
 34 17  1  0  0  0  0
 18 17  1  0  0  0  0
 22 18  2  0  0  0  0
 19 18  1  0  0  0  0
 20 19  2  0  0  0  0
 35 20  1  0  0  0  0
 21 20  1  0  0  0  0
 36 22  1  0  0  0  0
 10  5  1  0  0  0  0
 12 11  2  0  0  0  0
 22 21  1  0  0  0  0
M  END
>  <FittedScore>
-36.42

$$$$
