A71EV2A-x4809a_lowest-energy
  FITTED

 43 44     0  0  0  0  0  0  0999 V2000
    6.9110   13.3614   23.4990 O    0  0  0  0  0  0  0  0  0  0  0  0
    7.9165   13.6625   24.1235 C    0  0  0  0  0  0  0  0  0  0  0  0
    8.7667   14.6542   23.6717 N    0  0  0  0  0  0  0  0  0  0  0  0
    8.6343   15.3223   22.3334 C    0  0  0  0  0  0  0  0  0  0  0  0
    9.8976   15.1560   21.4287 C    0  0  0  0  0  0  0  0  0  0  0  0
    9.7210   15.9519   20.0986 C    0  0  0  0  0  0  0  0  0  0  0  0
   10.7613   15.6174   19.0069 C    0  0  0  0  0  0  0  0  0  0  0  0
   10.4040   16.2886   17.8001 O    0  0  0  0  0  0  0  0  0  0  0  0
   11.1998   15.5691   22.1912 C    0  0  0  0  0  0  0  0  0  0  0  0
   11.2687   14.9665   23.6190 C    0  0  0  0  0  0  0  0  0  0  0  0
    9.9564   15.2109   24.4008 C    0  0  0  0  0  0  0  0  0  0  0  0
    8.2530   12.8912   25.4086 C    0  0  0  0  0  0  0  0  0  0  0  0
    7.4141   11.6146   25.5622 C    0  0  0  0  0  0  0  0  0  0  0  0
    7.7085   10.4315   24.8419 C    0  0  0  0  0  0  0  0  0  0  0  0
    9.1678   10.3054   23.8138 S    0  0  0  0  0  0  0  0  0  0  0  0
    9.7755    8.6075   24.0289 C    0  0  0  0  0  0  0  0  0  0  0  0
    6.2285   11.6822   26.3211 C    0  0  0  0  0  0  0  0  0  0  0  0
    5.3512   10.5966   26.3786 C    0  0  0  0  0  0  0  0  0  0  0  0
    5.6362    9.4333   25.6585 C    0  0  0  0  0  0  0  0  0  0  0  0
    6.8004    9.3590   24.8888 C    0  0  0  0  0  0  0  0  0  0  0  0
    7.7738   14.9378   21.7783 H    0  0  0  0  0  0  0  0  0  0  0  0
    8.4231   16.3874   22.4841 H    0  0  0  0  0  0  0  0  0  0  0  0
    9.9771   14.0899   21.1850 H    0  0  0  0  0  0  0  0  0  0  0  0
    9.7493   17.0291   20.2990 H    0  0  0  0  0  0  0  0  0  0  0  0
    8.7267   15.7448   19.6903 H    0  0  0  0  0  0  0  0  0  0  0  0
   10.8218   14.5394   18.8314 H    0  0  0  0  0  0  0  0  0  0  0  0
   11.7546   15.9616   19.2916 H    0  0  0  0  0  0  0  0  0  0  0  0
    9.6426   15.8338   17.3952 H    0  0  0  0  0  0  0  0  0  0  0  0
   12.0793   15.2297   21.6379 H    0  0  0  0  0  0  0  0  0  0  0  0
   11.2738   16.6575   22.2586 H    0  0  0  0  0  0  0  0  0  0  0  0
   11.4694   13.8920   23.5587 H    0  0  0  0  0  0  0  0  0  0  0  0
   12.1070   15.4126   24.1573 H    0  0  0  0  0  0  0  0  0  0  0  0
   10.0772   14.8181   25.4087 H    0  0  0  0  0  0  0  0  0  0  0  0
    9.8216   16.2876   24.5453 H    0  0  0  0  0  0  0  0  0  0  0  0
    9.3133   12.6307   25.4330 H    0  0  0  0  0  0  0  0  0  0  0  0
    8.0977   13.5552   26.2619 H    0  0  0  0  0  0  0  0  0  0  0  0
   10.7476    8.5080   23.5479 H    0  0  0  0  0  0  0  0  0  0  0  0
    9.1012    7.8841   23.5775 H    0  0  0  0  0  0  0  0  0  0  0  0
    9.8839    8.3991   25.0943 H    0  0  0  0  0  0  0  0  0  0  0  0
    5.9734   12.5926   26.8544 H    0  0  0  0  0  0  0  0  0  0  0  0
    4.4412   10.6632   26.9685 H    0  0  0  0  0  0  0  0  0  0  0  0
    4.9514    8.5896   25.6956 H    0  0  0  0  0  0  0  0  0  0  0  0
    6.9752    8.4532   24.3224 H    0  0  0  0  0  0  0  0  0  0  0  0
  2  1  2  0  0  0  0
  3  2  1  0  0  0  0
 11  3  1  0  0  0  0
  4  3  1  0  0  0  0
 21  4  1  0  0  0  0
 22  4  1  0  0  0  0
  5  4  1  0  0  0  0
  6  5  1  0  0  0  0
 23  5  1  0  0  0  0
 24  6  1  0  0  0  0
 25  6  1  0  0  0  0
  7  6  1  0  0  0  0
 26  7  1  0  0  0  0
 27  7  1  0  0  0  0
  8  7  1  0  0  0  0
 28  8  1  0  0  0  0
  9  5  1  0  0  0  0
 29  9  1  0  0  0  0
 30  9  1  0  0  0  0
 10  9  1  0  0  0  0
 31 10  1  0  0  0  0
 32 10  1  0  0  0  0
 33 11  1  0  0  0  0
 34 11  1  0  0  0  0
 12  2  1  0  0  0  0
 35 12  1  0  0  0  0
 36 12  1  0  0  0  0
 13 12  1  0  0  0  0
 14 13  1  0  0  0  0
 20 14  2  0  0  0  0
 15 14  1  0  0  0  0
 16 15  1  0  0  0  0
 37 16  1  0  0  0  0
 38 16  1  0  0  0  0
 39 16  1  0  0  0  0
 17 13  2  0  0  0  0
 40 17  1  0  0  0  0
 18 17  1  0  0  0  0
 41 18  1  0  0  0  0
 19 18  2  0  0  0  0
 42 19  1  0  0  0  0
 43 20  1  0  0  0  0
 11 10  1  0  0  0  0
 20 19  1  0  0  0  0
M  END
>  <FittedScore>
-28.72

$$$$
