A71EV2A-x4809a_best-RMSD
  FITTED

 43 44     0  0  0  0  0  0  0999 V2000
    7.1142   13.3190   23.4327 O    0  0  0  0  0  0  0  0  0  0  0  0
    8.0724   13.6951   24.0875 C    0  0  0  0  0  0  0  0  0  0  0  0
    8.8570   14.7384   23.6451 N    0  0  0  0  0  0  0  0  0  0  0  0
    8.6744   15.3844   22.3018 C    0  0  0  0  0  0  0  0  0  0  0  0
    9.9564   15.2958   21.4182 C    0  0  0  0  0  0  0  0  0  0  0  0
    9.7136   15.9782   20.0440 C    0  0  0  0  0  0  0  0  0  0  0  0
   10.8137   15.6759   19.0051 C    0  0  0  0  0  0  0  0  0  0  0  0
   10.4256   16.2288   17.7569 O    0  0  0  0  0  0  0  0  0  0  0  0
   11.1837   15.9080   22.1706 C    0  0  0  0  0  0  0  0  0  0  0  0
   11.3256   15.3279   23.6035 C    0  0  0  0  0  0  0  0  0  0  0  0
    9.9891   15.3925   24.3864 C    0  0  0  0  0  0  0  0  0  0  0  0
    8.4061   12.9772   25.4091 C    0  0  0  0  0  0  0  0  0  0  0  0
    7.4299   11.8211   25.6943 C    0  0  0  0  0  0  0  0  0  0  0  0
    7.5395   10.5610   25.0463 C    0  0  0  0  0  0  0  0  0  0  0  0
    8.8924   10.2365   23.9238 S    0  0  0  0  0  0  0  0  0  0  0  0
    9.2931    8.4680   24.0478 C    0  0  0  0  0  0  0  0  0  0  0  0
    6.2886   12.1008   26.4702 C    0  0  0  0  0  0  0  0  0  0  0  0
    5.2936   11.1329   26.6493 C    0  0  0  0  0  0  0  0  0  0  0  0
    5.4144    9.8849   26.0327 C    0  0  0  0  0  0  0  0  0  0  0  0
    6.5231    9.6053   25.2270 C    0  0  0  0  0  0  0  0  0  0  0  0
    7.8443   14.9416   21.7443 H    0  0  0  0  0  0  0  0  0  0  0  0
    8.3830   16.4297   22.4477 H    0  0  0  0  0  0  0  0  0  0  0  0
   10.1533   14.2294   21.2514 H    0  0  0  0  0  0  0  0  0  0  0  0
    9.6300   17.0626   20.1773 H    0  0  0  0  0  0  0  0  0  0  0  0
    8.7544   15.6384   19.6407 H    0  0  0  0  0  0  0  0  0  0  0  0
   10.9672   14.5992   18.8869 H    0  0  0  0  0  0  0  0  0  0  0  0
   11.7628   16.1278   19.2982 H    0  0  0  0  0  0  0  0  0  0  0  0
    9.9823   15.5153   17.2609 H    0  0  0  0  0  0  0  0  0  0  0  0
   12.1080   15.6958   21.6288 H    0  0  0  0  0  0  0  0  0  0  0  0
   11.0976   17.0007   22.2237 H    0  0  0  0  0  0  0  0  0  0  0  0
   11.6784   14.2933   23.5494 H    0  0  0  0  0  0  0  0  0  0  0  0
   12.0915   15.8966   24.1371 H    0  0  0  0  0  0  0  0  0  0  0  0
   10.1608   14.9735   25.3761 H    0  0  0  0  0  0  0  0  0  0  0  0
    9.7349   16.4428   24.5642 H    0  0  0  0  0  0  0  0  0  0  0  0
    9.4411   12.6208   25.3947 H    0  0  0  0  0  0  0  0  0  0  0  0
    8.3612   13.7012   26.2277 H    0  0  0  0  0  0  0  0  0  0  0  0
   10.1918    8.2682   23.4654 H    0  0  0  0  0  0  0  0  0  0  0  0
    8.4817    7.8607   23.6482 H    0  0  0  0  0  0  0  0  0  0  0  0
    9.4775    8.1988   25.0888 H    0  0  0  0  0  0  0  0  0  0  0  0
    6.1580   13.0828   26.9268 H    0  0  0  0  0  0  0  0  0  0  0  0
    4.4222   11.3585   27.2603 H    0  0  0  0  0  0  0  0  0  0  0  0
    4.6358    9.1372   26.1709 H    0  0  0  0  0  0  0  0  0  0  0  0
    6.5601    8.6440   24.7317 H    0  0  0  0  0  0  0  0  0  0  0  0
  2  1  2  0  0  0  0
  3  2  1  0  0  0  0
 11  3  1  0  0  0  0
  4  3  1  0  0  0  0
 21  4  1  0  0  0  0
 22  4  1  0  0  0  0
  5  4  1  0  0  0  0
  6  5  1  0  0  0  0
 23  5  1  0  0  0  0
 24  6  1  0  0  0  0
 25  6  1  0  0  0  0
  7  6  1  0  0  0  0
 26  7  1  0  0  0  0
 27  7  1  0  0  0  0
  8  7  1  0  0  0  0
 28  8  1  0  0  0  0
  9  5  1  0  0  0  0
 29  9  1  0  0  0  0
 30  9  1  0  0  0  0
 10  9  1  0  0  0  0
 31 10  1  0  0  0  0
 32 10  1  0  0  0  0
 33 11  1  0  0  0  0
 34 11  1  0  0  0  0
 12  2  1  0  0  0  0
 35 12  1  0  0  0  0
 36 12  1  0  0  0  0
 13 12  1  0  0  0  0
 14 13  1  0  0  0  0
 20 14  2  0  0  0  0
 15 14  1  0  0  0  0
 16 15  1  0  0  0  0
 37 16  1  0  0  0  0
 38 16  1  0  0  0  0
 39 16  1  0  0  0  0
 17 13  2  0  0  0  0
 40 17  1  0  0  0  0
 18 17  1  0  0  0  0
 41 18  1  0  0  0  0
 19 18  2  0  0  0  0
 42 19  1  0  0  0  0
 43 20  1  0  0  0  0
 11 10  1  0  0  0  0
 20 19  1  0  0  0  0
M  END
>  <FittedScore>
-28.50

$$$$
