A71EV2A-x5884a_lowest-energy
  FITTED

 54 56     0  0  0  0  0  0  0999 V2000
    9.6469   16.6473   19.1835 O    0  0  0  0  0  0  0  0  0  0  0  0
   10.3152   15.7419   19.6457 C    0  0  0  0  0  0  0  0  0  0  0  0
   10.9488   14.9007   18.8114 N    0  0  0  0  0  0  0  0  0  0  0  0
   10.2904   15.3189   21.1162 C    0  0  0  0  0  0  0  0  0  0  0  0
   11.0479   16.3375   22.0164 C    0  0  0  0  0  0  0  0  0  0  0  0
   10.9079   15.9607   23.5161 C    0  0  0  0  0  0  0  0  0  0  0  0
    9.4262   15.7148   23.9184 C    0  0  0  0  0  0  0  0  0  0  0  0
    8.8311   15.0584   21.6085 C    0  0  0  0  0  0  0  0  0  0  0  0
    8.7126   14.7037   23.0646 N    0  0  0  0  0  0  0  0  0  0  0  0
    7.9223   13.6637   23.5244 C    0  0  0  0  0  0  0  0  0  0  0  0
    7.2880   12.9669   22.7518 O    0  0  0  0  0  0  0  0  0  0  0  0
    7.8977   13.3174   25.0264 C    0  0  0  0  0  0  0  0  0  0  0  0
    7.1244   12.0268   25.3859 C    0  0  0  0  0  0  0  0  0  0  0  0
    7.6675   10.7511   25.0497 C    0  0  0  0  0  0  0  0  0  0  0  0
    9.2058   10.6079   24.1105 S    0  0  0  0  0  0  0  0  0  0  0  0
    9.3763    8.9152   23.4586 C    0  0  0  0  0  0  0  0  0  0  0  0
    5.8654   12.1175   26.0704 C    0  0  0  0  0  0  0  0  0  0  0  0
    5.2526   10.9122   26.4946 C    0  0  0  0  0  0  0  0  0  0  0  0
    5.8169    9.6739   26.2057 C    0  0  0  0  0  0  0  0  0  0  0  0
    6.9929    9.5915   25.4655 C    0  0  0  0  0  0  0  0  0  0  0  0
    5.1268   13.4067   26.3366 C    0  0  0  0  0  0  0  0  0  0  0  0
    4.8507   13.8884   27.6486 C    0  0  0  0  0  0  0  0  0  0  0  0
    5.3680   13.1983   28.8048 C    0  0  0  0  0  0  0  0  0  0  0  0
    5.7890   12.6356   29.7010 N    0  0  0  0  0  0  0  0  0  0  0  0
    4.0842   15.0471   27.8478 C    0  0  0  0  0  0  0  0  0  0  0  0
    3.5957   15.7888   26.7537 C    0  0  0  0  0  0  0  0  0  0  0  0
    2.7383   17.0494   26.9433 C    0  0  0  0  0  0  0  0  0  0  0  0
    2.3569   17.2701   28.2189 F    0  0  0  0  0  0  0  0  0  0  0  0
    1.6007   16.9760   26.2293 F    0  0  0  0  0  0  0  0  0  0  0  0
    3.4137   18.1339   26.5244 F    0  0  0  0  0  0  0  0  0  0  0  0
    3.9172   15.3571   25.4524 C    0  0  0  0  0  0  0  0  0  0  0  0
    4.6502   14.1830   25.2495 C    0  0  0  0  0  0  0  0  0  0  0  0
   11.2819   14.0010   19.1547 H    0  0  0  0  0  0  0  0  0  0  0  0
   10.9803   15.1191   17.8204 H    0  0  0  0  0  0  0  0  0  0  0  0
   10.8204   14.3640   21.2246 H    0  0  0  0  0  0  0  0  0  0  0  0
   12.1073   16.3445   21.7473 H    0  0  0  0  0  0  0  0  0  0  0  0
   10.6720   17.3538   21.8532 H    0  0  0  0  0  0  0  0  0  0  0  0
   11.4963   15.0620   23.7266 H    0  0  0  0  0  0  0  0  0  0  0  0
   11.3201   16.7633   24.1333 H    0  0  0  0  0  0  0  0  0  0  0  0
    9.4216   15.4595   24.9769 H    0  0  0  0  0  0  0  0  0  0  0  0
    8.8787   16.6609   23.8634 H    0  0  0  0  0  0  0  0  0  0  0  0
    8.4309   14.2702   20.9648 H    0  0  0  0  0  0  0  0  0  0  0  0
    8.2023   15.9330   21.4159 H    0  0  0  0  0  0  0  0  0  0  0  0
    8.9152   13.1960   25.4037 H    0  0  0  0  0  0  0  0  0  0  0  0
    7.5186   14.1766   25.5812 H    0  0  0  0  0  0  0  0  0  0  0  0
    8.5070    8.6467   22.8544 H    0  0  0  0  0  0  0  0  0  0  0  0
    9.5009    8.2066   24.2783 H    0  0  0  0  0  0  0  0  0  0  0  0
   10.2646    8.8679   22.8281 H    0  0  0  0  0  0  0  0  0  0  0  0
    4.3162   10.9230   27.0506 H    0  0  0  0  0  0  0  0  0  0  0  0
    5.3257    8.7687   26.5520 H    0  0  0  0  0  0  0  0  0  0  0  0
    7.3747    8.6038   25.2430 H    0  0  0  0  0  0  0  0  0  0  0  0
    3.8671   15.3653   28.8688 H    0  0  0  0  0  0  0  0  0  0  0  0
    3.5781   15.9302   24.5902 H    0  0  0  0  0  0  0  0  0  0  0  0
    4.8518   13.8674   24.2279 H    0  0  0  0  0  0  0  0  0  0  0  0
  9 10  1  0  0  0  0
  7  9  1  0  0  0  0
  6  7  1  0  0  0  0
  5  6  1  0  0  0  0
  4  5  1  0  0  0  0
  2  4  1  0  0  0  0
  1  2  2  0  0  0  0
  3  2  1  0  0  0  0
 33  3  1  0  0  0  0
 34  3  1  0  0  0  0
 35  4  1  0  0  0  0
 36  5  1  0  0  0  0
 37  5  1  0  0  0  0
 38  6  1  0  0  0  0
 39  6  1  0  0  0  0
 40  7  1  0  0  0  0
 41  7  1  0  0  0  0
  8  4  1  0  0  0  0
 42  8  1  0  0  0  0
 43  8  1  0  0  0  0
 11 10  2  0  0  0  0
 12 10  1  0  0  0  0
 44 12  1  0  0  0  0
 45 12  1  0  0  0  0
 13 12  1  0  0  0  0
 14 13  1  0  0  0  0
 20 14  2  0  0  0  0
 15 14  1  0  0  0  0
 16 15  1  0  0  0  0
 46 16  1  0  0  0  0
 47 16  1  0  0  0  0
 48 16  1  0  0  0  0
 17 13  2  0  0  0  0
 18 17  1  0  0  0  0
 49 18  1  0  0  0  0
 19 18  2  0  0  0  0
 50 19  1  0  0  0  0
 51 20  1  0  0  0  0
 21 17  1  0  0  0  0
 32 21  2  0  0  0  0
 22 21  1  0  0  0  0
 23 22  1  0  0  0  0
 24 23  3  0  0  0  0
 25 22  2  0  0  0  0
 52 25  1  0  0  0  0
 26 25  1  0  0  0  0
 27 26  1  0  0  0  0
 28 27  1  0  0  0  0
 29 27  1  0  0  0  0
 30 27  1  0  0  0  0
 31 26  2  0  0  0  0
 53 31  1  0  0  0  0
 54 32  1  0  0  0  0
  9  8  1  0  0  0  0
 20 19  1  0  0  0  0
 32 31  1  0  0  0  0
M  END
>  <FittedScore>
-33.39

$$$$
