A71EV2A-x5884a_best-RMSD
  FITTED

 54 56     0  0  0  0  0  0  0999 V2000
    9.6765   16.6724   19.2249 O    0  0  0  0  0  0  0  0  0  0  0  0
   10.3397   15.7428   19.6448 C    0  0  0  0  0  0  0  0  0  0  0  0
   10.9615   14.9293   18.7769 N    0  0  0  0  0  0  0  0  0  0  0  0
   10.3809   15.2824   21.1058 C    0  0  0  0  0  0  0  0  0  0  0  0
   11.2014   16.2599   21.9911 C    0  0  0  0  0  0  0  0  0  0  0  0
   11.2004   15.7667   23.4625 C    0  0  0  0  0  0  0  0  0  0  0  0
    9.7528   15.5100   23.9764 C    0  0  0  0  0  0  0  0  0  0  0  0
    8.9490   15.0348   21.6778 C    0  0  0  0  0  0  0  0  0  0  0  0
    8.9158   14.5976   23.1145 N    0  0  0  0  0  0  0  0  0  0  0  0
    8.0702   13.5998   23.5782 C    0  0  0  0  0  0  0  0  0  0  0  0
    7.2578   13.0714   22.8328 O    0  0  0  0  0  0  0  0  0  0  0  0
    8.1177   13.1639   25.0545 C    0  0  0  0  0  0  0  0  0  0  0  0
    7.2712   11.9103   25.3869 C    0  0  0  0  0  0  0  0  0  0  0  0
    7.7255   10.6200   24.9879 C    0  0  0  0  0  0  0  0  0  0  0  0
    9.2379   10.4218   24.0183 S    0  0  0  0  0  0  0  0  0  0  0  0
    9.3520    8.6994   23.4488 C    0  0  0  0  0  0  0  0  0  0  0  0
    6.0379   12.0447   26.1101 C    0  0  0  0  0  0  0  0  0  0  0  0
    5.3541   10.8632   26.4867 C    0  0  0  0  0  0  0  0  0  0  0  0
    5.8339    9.6087   26.1330 C    0  0  0  0  0  0  0  0  0  0  0  0
    6.9904    9.4874   25.3691 C    0  0  0  0  0  0  0  0  0  0  0  0
    5.4099   13.3631   26.4908 C    0  0  0  0  0  0  0  0  0  0  0  0
    5.2309   13.7715   27.8416 C    0  0  0  0  0  0  0  0  0  0  0  0
    5.6932   12.9570   28.9404 C    0  0  0  0  0  0  0  0  0  0  0  0
    6.0569   12.3111   29.8047 N    0  0  0  0  0  0  0  0  0  0  0  0
    4.6065   14.9892   28.1530 C    0  0  0  0  0  0  0  0  0  0  0  0
    4.1544   15.8519   27.1362 C    0  0  0  0  0  0  0  0  0  0  0  0
    3.5038   17.2077   27.4568 C    0  0  0  0  0  0  0  0  0  0  0  0
    4.1995   18.1699   26.8246 F    0  0  0  0  0  0  0  0  0  0  0  0
    3.4482   17.5046   28.7756 F    0  0  0  0  0  0  0  0  0  0  0  0
    2.2313   17.2463   27.0177 F    0  0  0  0  0  0  0  0  0  0  0  0
    4.3557   15.4689   25.7941 C    0  0  0  0  0  0  0  0  0  0  0  0
    4.9786   14.2545   25.4789 C    0  0  0  0  0  0  0  0  0  0  0  0
   10.9838   15.1567   17.7899 H    0  0  0  0  0  0  0  0  0  0  0  0
   11.2844   14.0156   19.0940 H    0  0  0  0  0  0  0  0  0  0  0  0
   10.8955   14.3108   21.1735 H    0  0  0  0  0  0  0  0  0  0  0  0
   12.2300   16.3294   21.6244 H    0  0  0  0  0  0  0  0  0  0  0  0
   10.7789   17.2691   21.9364 H    0  0  0  0  0  0  0  0  0  0  0  0
   11.7866   14.8478   23.5440 H    0  0  0  0  0  0  0  0  0  0  0  0
   11.6907   16.5096   24.0961 H    0  0  0  0  0  0  0  0  0  0  0  0
    9.8417   15.1638   25.0070 H    0  0  0  0  0  0  0  0  0  0  0  0
    9.2360   16.4724   24.0494 H    0  0  0  0  0  0  0  0  0  0  0  0
    8.4922   14.2852   21.0256 H    0  0  0  0  0  0  0  0  0  0  0  0
    8.3391   15.9353   21.5738 H    0  0  0  0  0  0  0  0  0  0  0  0
    9.1446   12.9609   25.3671 H    0  0  0  0  0  0  0  0  0  0  0  0
    7.8314   14.0110   25.6786 H    0  0  0  0  0  0  0  0  0  0  0  0
   10.2586    8.5821   22.8520 H    0  0  0  0  0  0  0  0  0  0  0  0
    9.4164    8.0277   24.3085 H    0  0  0  0  0  0  0  0  0  0  0  0
    8.4951    8.4401   22.8319 H    0  0  0  0  0  0  0  0  0  0  0  0
    4.4296   10.9053   27.0621 H    0  0  0  0  0  0  0  0  0  0  0  0
    5.2938    8.7204   26.4451 H    0  0  0  0  0  0  0  0  0  0  0  0
    7.3121    8.4855   25.1158 H    0  0  0  0  0  0  0  0  0  0  0  0
    4.4801   15.2618   29.2012 H    0  0  0  0  0  0  0  0  0  0  0  0
    4.0414   16.1245   24.9858 H    0  0  0  0  0  0  0  0  0  0  0  0
    5.1165   13.9937   24.4320 H    0  0  0  0  0  0  0  0  0  0  0  0
  9 10  1  0  0  0  0
  7  9  1  0  0  0  0
  6  7  1  0  0  0  0
  5  6  1  0  0  0  0
  4  5  1  0  0  0  0
  2  4  1  0  0  0  0
  1  2  2  0  0  0  0
  3  2  1  0  0  0  0
 33  3  1  0  0  0  0
 34  3  1  0  0  0  0
 35  4  1  0  0  0  0
 36  5  1  0  0  0  0
 37  5  1  0  0  0  0
 38  6  1  0  0  0  0
 39  6  1  0  0  0  0
 40  7  1  0  0  0  0
 41  7  1  0  0  0  0
  8  4  1  0  0  0  0
 42  8  1  0  0  0  0
 43  8  1  0  0  0  0
 11 10  2  0  0  0  0
 12 10  1  0  0  0  0
 44 12  1  0  0  0  0
 45 12  1  0  0  0  0
 13 12  1  0  0  0  0
 14 13  1  0  0  0  0
 20 14  2  0  0  0  0
 15 14  1  0  0  0  0
 16 15  1  0  0  0  0
 46 16  1  0  0  0  0
 47 16  1  0  0  0  0
 48 16  1  0  0  0  0
 17 13  2  0  0  0  0
 18 17  1  0  0  0  0
 49 18  1  0  0  0  0
 19 18  2  0  0  0  0
 50 19  1  0  0  0  0
 51 20  1  0  0  0  0
 21 17  1  0  0  0  0
 32 21  2  0  0  0  0
 22 21  1  0  0  0  0
 23 22  1  0  0  0  0
 24 23  3  0  0  0  0
 25 22  2  0  0  0  0
 52 25  1  0  0  0  0
 26 25  1  0  0  0  0
 27 26  1  0  0  0  0
 28 27  1  0  0  0  0
 29 27  1  0  0  0  0
 30 27  1  0  0  0  0
 31 26  2  0  0  0  0
 53 31  1  0  0  0  0
 54 32  1  0  0  0  0
  9  8  1  0  0  0  0
 20 19  1  0  0  0  0
 32 31  1  0  0  0  0
M  END
>  <FittedScore>
-33.70

$$$$
