A71EV2A-x4207b_best-RMSD
  FITTED

 47 48     0  0  0  0  0  0  0999 V2000
    9.8097   16.8442   19.4192 O    0  0  0  0  0  0  0  0  0  0  0  0
   10.3701   15.8105   19.7375 C    0  0  0  0  0  0  0  0  0  0  0  0
   10.6609   14.8983   18.7925 N    0  0  0  0  0  0  0  0  0  0  0  0
   10.6547   15.4023   21.1806 C    0  0  0  0  0  0  0  0  0  0  0  0
   11.7441   16.3258   21.8022 C    0  0  0  0  0  0  0  0  0  0  0  0
   11.9388   16.0262   23.3077 C    0  0  0  0  0  0  0  0  0  0  0  0
   10.5909   16.0222   24.0693 C    0  0  0  0  0  0  0  0  0  0  0  0
    9.3505   15.3589   22.0395 C    0  0  0  0  0  0  0  0  0  0  0  0
    9.5964   15.0557   23.4925 N    0  0  0  0  0  0  0  0  0  0  0  0
    8.9101   14.1393   24.2721 C    0  0  0  0  0  0  0  0  0  0  0  0
    9.2870   13.8781   25.4035 O    0  0  0  0  0  0  0  0  0  0  0  0
    7.6237   13.4776   23.7428 C    0  0  0  0  0  0  0  0  0  0  0  0
    6.5783   14.4799   23.4228 N    0  0  0  0  0  0  0  0  0  0  0  0
    5.6271   14.3672   22.4642 C    0  0  0  0  0  0  0  0  0  0  0  0
    5.5781   13.4296   21.6926 O    0  0  0  0  0  0  0  0  0  0  0  0
    4.6922   15.5551   22.3421 C    0  0  0  0  0  0  0  0  0  0  0  0
    7.0913   12.3497   24.6769 C    0  0  0  0  0  0  0  0  0  0  0  0
    7.6623   11.0489   24.6225 C    0  0  0  0  0  0  0  0  0  0  0  0
    8.7342   10.8262   23.7607 O    0  0  0  0  0  0  0  0  0  0  0  0
    9.3842    9.5667   23.4935 C    0  0  0  0  0  0  0  0  0  0  0  0
    6.0954   12.6093   25.6511 C    0  0  0  0  0  0  0  0  0  0  0  0
    5.6325   11.5940   26.4979 C    0  0  0  0  0  0  0  0  0  0  0  0
    6.1539   10.3012   26.3938 C    0  0  0  0  0  0  0  0  0  0  0  0
    7.1626   10.0295   25.4641 C    0  0  0  0  0  0  0  0  0  0  0  0
   10.5146   15.1297   17.8209 H    0  0  0  0  0  0  0  0  0  0  0  0
   10.9283   13.9476   19.0431 H    0  0  0  0  0  0  0  0  0  0  0  0
   11.0554   14.3841   21.1870 H    0  0  0  0  0  0  0  0  0  0  0  0
   12.6951   16.1835   21.2800 H    0  0  0  0  0  0  0  0  0  0  0  0
   11.4787   17.3812   21.6777 H    0  0  0  0  0  0  0  0  0  0  0  0
   12.4468   15.0650   23.4453 H    0  0  0  0  0  0  0  0  0  0  0  0
   12.5935   16.7871   23.7445 H    0  0  0  0  0  0  0  0  0  0  0  0
   10.8026   15.8323   25.1222 H    0  0  0  0  0  0  0  0  0  0  0  0
   10.1591   17.0276   24.0478 H    0  0  0  0  0  0  0  0  0  0  0  0
    8.7020   14.6257   21.5584 H    0  0  0  0  0  0  0  0  0  0  0  0
    8.8154   16.3114   21.9662 H    0  0  0  0  0  0  0  0  0  0  0  0
    7.8873   12.9945   22.7981 H    0  0  0  0  0  0  0  0  0  0  0  0
    6.6378   15.3617   23.9163 H    0  0  0  0  0  0  0  0  0  0  0  0
    5.2584   16.4481   22.0507 H    0  0  0  0  0  0  0  0  0  0  0  0
    4.1902   15.7506   23.2910 H    0  0  0  0  0  0  0  0  0  0  0  0
    3.9191   15.3829   21.5869 H    0  0  0  0  0  0  0  0  0  0  0  0
    9.8545    9.1868   24.4018 H    0  0  0  0  0  0  0  0  0  0  0  0
   10.1614    9.7299   22.7446 H    0  0  0  0  0  0  0  0  0  0  0  0
    8.6630    8.8389   23.1157 H    0  0  0  0  0  0  0  0  0  0  0  0
    5.6739   13.6034   25.7753 H    0  0  0  0  0  0  0  0  0  0  0  0
    4.8706   11.8143   27.2405 H    0  0  0  0  0  0  0  0  0  0  0  0
    5.7951    9.5129   27.0518 H    0  0  0  0  0  0  0  0  0  0  0  0
    7.5714    9.0242   25.4338 H    0  0  0  0  0  0  0  0  0  0  0  0
 12 13  1  0  0  0  0
 10 12  1  0  0  0  0
  9 10  1  0  0  0  0
  7  9  1  0  0  0  0
  6  7  1  0  0  0  0
  5  6  1  0  0  0  0
  4  5  1  0  0  0  0
  2  4  1  0  0  0  0
  1  2  2  0  0  0  0
  3  2  1  0  0  0  0
 25  3  1  0  0  0  0
 26  3  1  0  0  0  0
 27  4  1  0  0  0  0
 28  5  1  0  0  0  0
 29  5  1  0  0  0  0
 30  6  1  0  0  0  0
 31  6  1  0  0  0  0
 32  7  1  0  0  0  0
 33  7  1  0  0  0  0
  8  4  1  0  0  0  0
 34  8  1  0  0  0  0
 35  8  1  0  0  0  0
 11 10  2  0  0  0  0
 36 12  1  0  0  0  0
 37 13  1  0  0  0  0
 14 13  1  0  0  0  0
 15 14  2  0  0  0  0
 16 14  1  0  0  0  0
 38 16  1  0  0  0  0
 39 16  1  0  0  0  0
 40 16  1  0  0  0  0
 17 12  1  0  0  0  0
 18 17  1  0  0  0  0
 24 18  2  0  0  0  0
 19 18  1  0  0  0  0
 20 19  1  0  0  0  0
 41 20  1  0  0  0  0
 42 20  1  0  0  0  0
 43 20  1  0  0  0  0
 21 17  2  0  0  0  0
 44 21  1  0  0  0  0
 22 21  1  0  0  0  0
 45 22  1  0  0  0  0
 23 22  2  0  0  0  0
 46 23  1  0  0  0  0
 47 24  1  0  0  0  0
  9  8  1  0  0  0  0
 24 23  1  0  0  0  0
M  END
>  <FittedScore>
-34.78

$$$$
