A71EV2A-x7008a_best-RMSD
  FITTED

 64 66     0  0  0  0  0  0  0999 V2000
    9.5171    8.3297   23.4637 C    0  0  0  0  0  0  0  0  0  0  0  0
    9.4689   10.1188   23.7340 S    0  0  0  0  0  0  0  0  0  0  0  0
    8.1410   10.4296   24.8866 C    0  0  0  0  0  0  0  0  0  0  0  0
    7.3617    9.3827   25.2844 N    0  0  0  0  0  0  0  0  0  0  0  0
    6.3561    9.6250   26.1703 C    0  0  0  0  0  0  0  0  0  0  0  0
    6.0404   10.8470   26.6666 N    0  0  0  0  0  0  0  0  0  0  0  0
    6.7889   11.9097   26.2470 C    0  0  0  0  0  0  0  0  0  0  0  0
    6.3860   13.1509   26.6948 N    0  0  0  0  0  0  0  0  0  0  0  0
    6.4194   13.5077   28.1353 C    0  0  0  0  0  0  0  0  0  0  0  0
    4.9752   13.6036   28.7026 C    0  0  0  0  0  0  0  0  0  0  0  0
    4.0466   14.4848   27.7983 C    0  0  0  0  0  0  0  0  0  0  0  0
    2.6530   14.5100   28.3298 N    0  0  0  0  0  0  0  0  0  0  0  0
    1.7823   13.3189   28.1643 C    0  0  0  0  0  0  0  0  0  0  0  0
    2.0472   15.9051   29.1268 S    0  0  0  0  0  0  0  0  0  0  0  0
    1.3966   16.8370   27.7567 C    0  0  0  0  0  0  0  0  0  0  0  0
    3.1331   16.6490   29.7113 O    0  0  0  0  0  0  0  0  0  0  0  0
    0.9407   15.5799   29.9805 O    0  0  0  0  0  0  0  0  0  0  0  0
    4.1372   14.1065   26.2822 C    0  0  0  0  0  0  0  0  0  0  0  0
    5.6114   14.0503   25.8042 C    0  0  0  0  0  0  0  0  0  0  0  0
    7.8909   11.7444   25.3616 C    0  0  0  0  0  0  0  0  0  0  0  0
    8.7493   12.9492   24.9055 C    0  0  0  0  0  0  0  0  0  0  0  0
    8.3248   13.5736   23.5595 C    0  0  0  0  0  0  0  0  0  0  0  0
    7.4985   13.0121   22.8531 O    0  0  0  0  0  0  0  0  0  0  0  0
    8.9752   14.7159   23.1299 N    0  0  0  0  0  0  0  0  0  0  0  0
    9.9402   15.5593   23.9227 C    0  0  0  0  0  0  0  0  0  0  0  0
   11.3805   15.5058   23.3510 C    0  0  0  0  0  0  0  0  0  0  0  0
   11.4029   15.9499   21.8660 C    0  0  0  0  0  0  0  0  0  0  0  0
   10.3331   15.1682   21.0486 C    0  0  0  0  0  0  0  0  0  0  0  0
   10.3123   15.6435   19.6095 C    0  0  0  0  0  0  0  0  0  0  0  0
   10.8468   14.7829   18.7224 N    0  0  0  0  0  0  0  0  0  0  0  0
    9.7883   16.6788   19.2394 O    0  0  0  0  0  0  0  0  0  0  0  0
    8.9212   15.2018   21.7162 C    0  0  0  0  0  0  0  0  0  0  0  0
   10.3348    8.0842   22.7836 H    0  0  0  0  0  0  0  0  0  0  0  0
    8.5816    7.9995   23.0085 H    0  0  0  0  0  0  0  0  0  0  0  0
    9.6716    7.8042   24.4070 H    0  0  0  0  0  0  0  0  0  0  0  0
    5.7537    8.7792   26.5011 H    0  0  0  0  0  0  0  0  0  0  0  0
    6.9361   14.4613   28.2802 H    0  0  0  0  0  0  0  0  0  0  0  0
    6.9831   12.7739   28.7205 H    0  0  0  0  0  0  0  0  0  0  0  0
    5.0103   14.0241   29.7117 H    0  0  0  0  0  0  0  0  0  0  0  0
    4.5721   12.5920   28.8041 H    0  0  0  0  0  0  0  0  0  0  0  0
    4.4696   15.4954   27.8398 H    0  0  0  0  0  0  0  0  0  0  0  0
    1.2216   13.0941   29.0725 H    0  0  0  0  0  0  0  0  0  0  0  0
    2.3244   12.4007   27.9304 H    0  0  0  0  0  0  0  0  0  0  0  0
    1.0557   13.4757   27.3654 H    0  0  0  0  0  0  0  0  0  0  0  0
    0.6150   16.2583   27.2566 H    0  0  0  0  0  0  0  0  0  0  0  0
    2.1927   17.0653   27.0443 H    0  0  0  0  0  0  0  0  0  0  0  0
    0.9678   17.7712   28.1299 H    0  0  0  0  0  0  0  0  0  0  0  0
    3.5894   14.8442   25.6851 H    0  0  0  0  0  0  0  0  0  0  0  0
    3.6795   13.1338   26.0789 H    0  0  0  0  0  0  0  0  0  0  0  0
    6.0416   15.0547   25.7877 H    0  0  0  0  0  0  0  0  0  0  0  0
    5.6171   13.7090   24.7664 H    0  0  0  0  0  0  0  0  0  0  0  0
    9.8067   12.6750   24.8582 H    0  0  0  0  0  0  0  0  0  0  0  0
    8.7225   13.6955   25.6996 H    0  0  0  0  0  0  0  0  0  0  0  0
    9.9901   15.3156   24.9793 H    0  0  0  0  0  0  0  0  0  0  0  0
    9.5877   16.5956   23.9122 H    0  0  0  0  0  0  0  0  0  0  0  0
   11.7701   14.4855   23.4391 H    0  0  0  0  0  0  0  0  0  0  0  0
   12.0349   16.1514   23.9400 H    0  0  0  0  0  0  0  0  0  0  0  0
   12.3958   15.7613   21.4501 H    0  0  0  0  0  0  0  0  0  0  0  0
   11.2278   17.0295   21.7993 H    0  0  0  0  0  0  0  0  0  0  0  0
   10.6431   14.1152   21.0606 H    0  0  0  0  0  0  0  0  0  0  0  0
   10.8268   15.0163   17.7385 H    0  0  0  0  0  0  0  0  0  0  0  0
   11.1149   13.8442   19.0274 H    0  0  0  0  0  0  0  0  0  0  0  0
    8.2426   14.6108   21.0914 H    0  0  0  0  0  0  0  0  0  0  0  0
    8.5028   16.2148   21.7016 H    0  0  0  0  0  0  0  0  0  0  0  0
 18 19  1  0  0  0  0
 11 18  1  0  0  0  0
 10 11  1  0  0  0  0
  9 10  1  0  0  0  0
  8  9  1  0  0  0  0
  7  8  1  0  0  0  0
  6  7  1  0  0  0  0
  5  6  2  0  0  0  0
  4  5  1  0  0  0  0
  3  4  2  0  0  0  0
  2  3  1  0  0  0  0
  1  2  1  0  0  0  0
 33  1  1  0  0  0  0
 34  1  1  0  0  0  0
 35  1  1  0  0  0  0
 36  5  1  0  0  0  0
 20  7  2  0  0  0  0
 37  9  1  0  0  0  0
 38  9  1  0  0  0  0
 39 10  1  0  0  0  0
 40 10  1  0  0  0  0
 12 11  1  0  0  0  0
 41 11  1  0  0  0  0
 13 12  1  0  0  0  0
 14 12  1  0  0  0  0
 42 13  1  0  0  0  0
 43 13  1  0  0  0  0
 44 13  1  0  0  0  0
 15 14  1  0  0  0  0
 16 14  2  0  0  0  0
 17 14  2  0  0  0  0
 45 15  1  0  0  0  0
 46 15  1  0  0  0  0
 47 15  1  0  0  0  0
 48 18  1  0  0  0  0
 49 18  1  0  0  0  0
 50 19  1  0  0  0  0
 51 19  1  0  0  0  0
 21 20  1  0  0  0  0
 22 21  1  0  0  0  0
 52 21  1  0  0  0  0
 53 21  1  0  0  0  0
 23 22  2  0  0  0  0
 24 22  1  0  0  0  0
 25 24  1  0  0  0  0
 26 25  1  0  0  0  0
 54 25  1  0  0  0  0
 55 25  1  0  0  0  0
 27 26  1  0  0  0  0
 56 26  1  0  0  0  0
 57 26  1  0  0  0  0
 28 27  1  0  0  0  0
 58 27  1  0  0  0  0
 59 27  1  0  0  0  0
 29 28  1  0  0  0  0
 32 28  1  0  0  0  0
 60 28  1  0  0  0  0
 30 29  1  0  0  0  0
 31 29  2  0  0  0  0
 61 30  1  0  0  0  0
 62 30  1  0  0  0  0
 63 32  1  0  0  0  0
 64 32  1  0  0  0  0
 19  8  1  0  0  0  0
 20  3  1  0  0  0  0
 32 24  1  0  0  0  0
M  END
>  <FittedScore>
-33.27

$$$$
