A71EV2A-x7008a_lowest-energy
  FITTED

 64 66     0  0  0  0  0  0  0999 V2000
    9.5687    8.7453   23.3427 C    0  0  0  0  0  0  0  0  0  0  0  0
    9.4250   10.4754   23.9057 S    0  0  0  0  0  0  0  0  0  0  0  0
    7.9885   10.5542   24.9613 C    0  0  0  0  0  0  0  0  0  0  0  0
    7.3532    9.3771   25.2255 N    0  0  0  0  0  0  0  0  0  0  0  0
    6.2845    9.4005   26.0493 C    0  0  0  0  0  0  0  0  0  0  0  0
    5.7864   10.5097   26.6288 N    0  0  0  0  0  0  0  0  0  0  0  0
    6.3832   11.7061   26.3636 C    0  0  0  0  0  0  0  0  0  0  0  0
    5.8123   12.7961   26.9926 N    0  0  0  0  0  0  0  0  0  0  0  0
    5.9850   12.9674   28.4546 C    0  0  0  0  0  0  0  0  0  0  0  0
    4.8009   12.3036   29.2139 C    0  0  0  0  0  0  0  0  0  0  0  0
    3.3975   12.7205   28.6500 C    0  0  0  0  0  0  0  0  0  0  0  0
    2.3214   11.8393   29.1961 N    0  0  0  0  0  0  0  0  0  0  0  0
    1.3830   12.4936   30.1323 C    0  0  0  0  0  0  0  0  0  0  0  0
    2.0915   10.1804   28.7789 S    0  0  0  0  0  0  0  0  0  0  0  0
    2.3670    9.3413   30.3195 C    0  0  0  0  0  0  0  0  0  0  0  0
    3.1151    9.6846   27.9049 O    0  0  0  0  0  0  0  0  0  0  0  0
    0.7282    9.9888   28.3748 O    0  0  0  0  0  0  0  0  0  0  0  0
    3.3084   12.8589   27.0840 C    0  0  0  0  0  0  0  0  0  0  0  0
    4.5984   13.4321   26.4274 C    0  0  0  0  0  0  0  0  0  0  0  0
    7.5197   11.7872   25.5104 C    0  0  0  0  0  0  0  0  0  0  0  0
    8.2261   13.1291   25.1921 C    0  0  0  0  0  0  0  0  0  0  0  0
    8.0896   13.6099   23.7308 C    0  0  0  0  0  0  0  0  0  0  0  0
    7.3015   13.0353   22.9962 O    0  0  0  0  0  0  0  0  0  0  0  0
    8.8882   14.6430   23.2606 N    0  0  0  0  0  0  0  0  0  0  0  0
    9.8399   15.4742   24.0802 C    0  0  0  0  0  0  0  0  0  0  0  0
   11.2792   15.5499   23.4961 C    0  0  0  0  0  0  0  0  0  0  0  0
   11.2793   16.0249   22.0185 C    0  0  0  0  0  0  0  0  0  0  0  0
   10.2806   15.1772   21.1788 C    0  0  0  0  0  0  0  0  0  0  0  0
   10.2596   15.6597   19.7267 C    0  0  0  0  0  0  0  0  0  0  0  0
   10.8089   14.8253   18.8148 N    0  0  0  0  0  0  0  0  0  0  0  0
    9.7781   16.7205   19.3722 O    0  0  0  0  0  0  0  0  0  0  0  0
    8.8634   15.1357   21.8398 C    0  0  0  0  0  0  0  0  0  0  0  0
   10.4403    8.6529   22.6909 H    0  0  0  0  0  0  0  0  0  0  0  0
    8.6830    8.4591   22.7693 H    0  0  0  0  0  0  0  0  0  0  0  0
    9.6913    8.0758   24.1977 H    0  0  0  0  0  0  0  0  0  0  0  0
    5.7866    8.4570   26.2616 H    0  0  0  0  0  0  0  0  0  0  0  0
    6.0458   14.0268   28.7195 H    0  0  0  0  0  0  0  0  0  0  0  0
    6.9239   12.5257   28.8001 H    0  0  0  0  0  0  0  0  0  0  0  0
    4.8624   12.5789   30.2697 H    0  0  0  0  0  0  0  0  0  0  0  0
    4.9356   11.2204   29.1922 H    0  0  0  0  0  0  0  0  0  0  0  0
    3.2610   13.7466   29.0140 H    0  0  0  0  0  0  0  0  0  0  0  0
    1.9120   12.8900   31.0010 H    0  0  0  0  0  0  0  0  0  0  0  0
    0.6145   11.8161   30.5106 H    0  0  0  0  0  0  0  0  0  0  0  0
    0.8532   13.3183   29.6495 H    0  0  0  0  0  0  0  0  0  0  0  0
    2.2577    8.2650   30.1652 H    0  0  0  0  0  0  0  0  0  0  0  0
    1.6425    9.6683   31.0651 H    0  0  0  0  0  0  0  0  0  0  0  0
    3.3792    9.5579   30.6697 H    0  0  0  0  0  0  0  0  0  0  0  0
    2.4650   13.5103   26.8386 H    0  0  0  0  0  0  0  0  0  0  0  0
    3.0780   11.9115   26.5969 H    0  0  0  0  0  0  0  0  0  0  0  0
    4.6236   14.5160   26.5720 H    0  0  0  0  0  0  0  0  0  0  0  0
    4.5381   13.2783   25.3454 H    0  0  0  0  0  0  0  0  0  0  0  0
    9.2764   12.9948   25.4661 H    0  0  0  0  0  0  0  0  0  0  0  0
    7.8735   13.9323   25.8421 H    0  0  0  0  0  0  0  0  0  0  0  0
    9.9391   15.1407   25.1105 H    0  0  0  0  0  0  0  0  0  0  0  0
    9.4398   16.4909   24.1589 H    0  0  0  0  0  0  0  0  0  0  0  0
   11.7721   14.5729   23.5671 H    0  0  0  0  0  0  0  0  0  0  0  0
   11.8811   16.2408   24.0922 H    0  0  0  0  0  0  0  0  0  0  0  0
   12.2876   15.9199   21.6075 H    0  0  0  0  0  0  0  0  0  0  0  0
   11.0233   17.0890   21.9673 H    0  0  0  0  0  0  0  0  0  0  0  0
   10.6457   14.1448   21.1917 H    0  0  0  0  0  0  0  0  0  0  0  0
   11.0972   13.8889   19.1004 H    0  0  0  0  0  0  0  0  0  0  0  0
   10.7445   15.0464   17.8246 H    0  0  0  0  0  0  0  0  0  0  0  0
    8.2129   14.5289   21.2039 H    0  0  0  0  0  0  0  0  0  0  0  0
    8.4215   16.1375   21.8276 H    0  0  0  0  0  0  0  0  0  0  0  0
 18 19  1  0  0  0  0
 11 18  1  0  0  0  0
 10 11  1  0  0  0  0
  9 10  1  0  0  0  0
  8  9  1  0  0  0  0
  7  8  1  0  0  0  0
  6  7  1  0  0  0  0
  5  6  2  0  0  0  0
  4  5  1  0  0  0  0
  3  4  2  0  0  0  0
  2  3  1  0  0  0  0
  1  2  1  0  0  0  0
 33  1  1  0  0  0  0
 34  1  1  0  0  0  0
 35  1  1  0  0  0  0
 36  5  1  0  0  0  0
 20  7  2  0  0  0  0
 37  9  1  0  0  0  0
 38  9  1  0  0  0  0
 39 10  1  0  0  0  0
 40 10  1  0  0  0  0
 12 11  1  0  0  0  0
 41 11  1  0  0  0  0
 13 12  1  0  0  0  0
 14 12  1  0  0  0  0
 42 13  1  0  0  0  0
 43 13  1  0  0  0  0
 44 13  1  0  0  0  0
 15 14  1  0  0  0  0
 16 14  2  0  0  0  0
 17 14  2  0  0  0  0
 45 15  1  0  0  0  0
 46 15  1  0  0  0  0
 47 15  1  0  0  0  0
 48 18  1  0  0  0  0
 49 18  1  0  0  0  0
 50 19  1  0  0  0  0
 51 19  1  0  0  0  0
 21 20  1  0  0  0  0
 22 21  1  0  0  0  0
 52 21  1  0  0  0  0
 53 21  1  0  0  0  0
 23 22  2  0  0  0  0
 24 22  1  0  0  0  0
 25 24  1  0  0  0  0
 26 25  1  0  0  0  0
 54 25  1  0  0  0  0
 55 25  1  0  0  0  0
 27 26  1  0  0  0  0
 56 26  1  0  0  0  0
 57 26  1  0  0  0  0
 28 27  1  0  0  0  0
 58 27  1  0  0  0  0
 59 27  1  0  0  0  0
 29 28  1  0  0  0  0
 32 28  1  0  0  0  0
 60 28  1  0  0  0  0
 30 29  1  0  0  0  0
 31 29  2  0  0  0  0
 61 30  1  0  0  0  0
 62 30  1  0  0  0  0
 63 32  1  0  0  0  0
 64 32  1  0  0  0  0
 19  8  1  0  0  0  0
 20  3  1  0  0  0  0
 32 24  1  0  0  0  0
M  END
>  <FittedScore>
-36.33

$$$$
