A71EV2A-x5082a_best-RMSD
  FITTED

 36 37     0  0  0  0  0  0  0999 V2000
    9.8793   16.9475   19.1434 O    0  0  0  0  0  0  0  0  0  0  0  0
   10.3010   15.8819   19.5491 C    0  0  0  0  0  0  0  0  0  0  0  0
   10.6126   14.8797   18.7027 N    0  0  0  0  0  0  0  0  0  0  0  0
   10.3386   15.4910   21.0115 C    0  0  0  0  0  0  0  0  0  0  0  0
   11.3535   16.3545   21.8165 C    0  0  0  0  0  0  0  0  0  0  0  0
   11.3213   15.9543   23.3173 C    0  0  0  0  0  0  0  0  0  0  0  0
    9.8708   15.9252   23.8789 C    0  0  0  0  0  0  0  0  0  0  0  0
    8.9189   15.5366   21.6484 C    0  0  0  0  0  0  0  0  0  0  0  0
    8.9536   15.0531   23.0644 N    0  0  0  0  0  0  0  0  0  0  0  0
    8.2791   13.9264   23.4842 C    0  0  0  0  0  0  0  0  0  0  0  0
    7.5949   13.2806   22.7064 O    0  0  0  0  0  0  0  0  0  0  0  0
    8.4345   13.4520   24.9378 C    0  0  0  0  0  0  0  0  0  0  0  0
    7.9019   12.0436   25.1718 C    0  0  0  0  0  0  0  0  0  0  0  0
    6.7068   11.8206   25.8850 C    0  0  0  0  0  0  0  0  0  0  0  0
    6.2251   10.5069   26.0030 C    0  0  0  0  0  0  0  0  0  0  0  0
    6.9255    9.4684   25.3728 C    0  0  0  0  0  0  0  0  0  0  0  0
    8.6138   11.0233   24.6209 N    0  0  0  0  0  0  0  0  0  0  0  0
    8.1228    9.7694   24.7046 C    0  0  0  0  0  0  0  0  0  0  0  0
    8.9343    8.7417   24.1251 C    0  0  0  0  0  0  0  0  0  0  0  0
    9.6218    7.9438   23.7066 N    0  0  0  0  0  0  0  0  0  0  0  0
   10.7931   13.9362   19.0357 H    0  0  0  0  0  0  0  0  0  0  0  0
   10.5647   15.0482   17.7089 H    0  0  0  0  0  0  0  0  0  0  0  0
   10.6831   14.4542   21.0896 H    0  0  0  0  0  0  0  0  0  0  0  0
   12.3609   16.2101   21.4187 H    0  0  0  0  0  0  0  0  0  0  0  0
   11.1201   17.4183   21.7139 H    0  0  0  0  0  0  0  0  0  0  0  0
   11.7847   14.9698   23.4422 H    0  0  0  0  0  0  0  0  0  0  0  0
   11.9253   16.6602   23.8947 H    0  0  0  0  0  0  0  0  0  0  0  0
    9.9197   15.6517   24.9314 H    0  0  0  0  0  0  0  0  0  0  0  0
    9.4719   16.9441   23.8880 H    0  0  0  0  0  0  0  0  0  0  0  0
    8.2359   14.9676   21.0128 H    0  0  0  0  0  0  0  0  0  0  0  0
    8.5200   16.5563   21.6273 H    0  0  0  0  0  0  0  0  0  0  0  0
    9.4915   13.4350   25.2249 H    0  0  0  0  0  0  0  0  0  0  0  0
    7.9383   14.1651   25.6040 H    0  0  0  0  0  0  0  0  0  0  0  0
    6.1583   12.6462   26.3341 H    0  0  0  0  0  0  0  0  0  0  0  0
    5.3000   10.3083   26.5351 H    0  0  0  0  0  0  0  0  0  0  0  0
    6.5628    8.4420   25.4396 H    0  0  0  0  0  0  0  0  0  0  0  0
  9 10  1  0  0  0  0
  7  9  1  0  0  0  0
  6  7  1  0  0  0  0
  5  6  1  0  0  0  0
  4  5  1  0  0  0  0
  2  4  1  0  0  0  0
  1  2  2  0  0  0  0
  3  2  1  0  0  0  0
 21  3  1  0  0  0  0
 22  3  1  0  0  0  0
 23  4  1  0  0  0  0
 24  5  1  0  0  0  0
 25  5  1  0  0  0  0
 26  6  1  0  0  0  0
 27  6  1  0  0  0  0
 28  7  1  0  0  0  0
 29  7  1  0  0  0  0
  8  4  1  0  0  0  0
 30  8  1  0  0  0  0
 31  8  1  0  0  0  0
 11 10  2  0  0  0  0
 12 10  1  0  0  0  0
 32 12  1  0  0  0  0
 33 12  1  0  0  0  0
 13 12  1  0  0  0  0
 14 13  1  0  0  0  0
 34 14  1  0  0  0  0
 15 14  2  0  0  0  0
 35 15  1  0  0  0  0
 16 15  1  0  0  0  0
 36 16  1  0  0  0  0
 17 13  2  0  0  0  0
 18 16  2  0  0  0  0
 19 18  1  0  0  0  0
 20 19  3  0  0  0  0
  9  8  1  0  0  0  0
 18 17  1  0  0  0  0
M  END
>  <FittedScore>
-30.84

$$$$
