A71EV2A-x7167a_lowest-energy
  FITTED

 57 59     0  0  0  0  0  0  0999 V2000
   10.0655   16.6848   19.3109 O    0  0  0  0  0  0  0  0  0  0  0  0
   10.4804   15.5971   19.6654 C    0  0  0  0  0  0  0  0  0  0  0  0
   11.0075   14.7491   18.7599 N    0  0  0  0  0  0  0  0  0  0  0  0
   10.3459   15.0632   21.0917 C    0  0  0  0  0  0  0  0  0  0  0  0
   11.3610   15.7307   22.0605 C    0  0  0  0  0  0  0  0  0  0  0  0
   11.1786   15.2039   23.5118 C    0  0  0  0  0  0  0  0  0  0  0  0
    9.6956   15.2509   23.9821 C    0  0  0  0  0  0  0  0  0  0  0  0
    8.8951   15.2194   21.6300 C    0  0  0  0  0  0  0  0  0  0  0  0
    8.7267   14.6466   23.0014 N    0  0  0  0  0  0  0  0  0  0  0  0
    7.7806   13.6986   23.2963 C    0  0  0  0  0  0  0  0  0  0  0  0
    7.0436   13.2268   22.4462 O    0  0  0  0  0  0  0  0  0  0  0  0
    7.7392   13.2453   24.5824 O    0  0  0  0  0  0  0  0  0  0  0  0
    7.0151   12.1296   24.9746 C    0  0  0  0  0  0  0  0  0  0  0  0
    7.5375   10.8307   24.8205 C    0  0  0  0  0  0  0  0  0  0  0  0
    9.1519   10.6255   24.0662 S    0  0  0  0  0  0  0  0  0  0  0  0
    9.2248    8.9355   23.3917 C    0  0  0  0  0  0  0  0  0  0  0  0
    5.7450   12.3282   25.5352 C    0  0  0  0  0  0  0  0  0  0  0  0
    4.9495   11.2416   25.9633 C    0  0  0  0  0  0  0  0  0  0  0  0
    5.4796    9.9461   25.7866 C    0  0  0  0  0  0  0  0  0  0  0  0
    6.7591    9.7422   25.2543 C    0  0  0  0  0  0  0  0  0  0  0  0
    3.6577   11.4586   26.5061 C    0  0  0  0  0  0  0  0  0  0  0  0
    2.8936   10.6742   27.3776 N    0  0  0  0  0  0  0  0  0  0  0  0
    3.3434    9.8777   28.6107 C    0  0  0  0  0  0  0  0  0  0  0  0
    3.1245    8.3556   28.3286 C    0  0  0  0  0  0  0  0  0  0  0  0
    4.8392   10.1235   29.0410 C    0  0  0  0  0  0  0  0  0  0  0  0
    2.4979   10.2418   29.8982 C    0  0  0  0  0  0  0  0  0  0  0  0
    1.5634   11.0333   27.3647 N    0  0  0  0  0  0  0  0  0  0  0  0
    1.5963   12.2842   26.6055 C    0  0  0  0  0  0  0  0  0  0  0  0
    2.8546   12.5201   26.1166 C    0  0  0  0  0  0  0  0  0  0  0  0
   10.9924   14.9974   17.7744 H    0  0  0  0  0  0  0  0  0  0  0  0
   11.2541   13.7958   19.0239 H    0  0  0  0  0  0  0  0  0  0  0  0
   10.5574   13.9883   21.0780 H    0  0  0  0  0  0  0  0  0  0  0  0
   12.3800   15.5174   21.7276 H    0  0  0  0  0  0  0  0  0  0  0  0
   11.2324   16.8169   22.0462 H    0  0  0  0  0  0  0  0  0  0  0  0
   11.5406   14.1735   23.5783 H    0  0  0  0  0  0  0  0  0  0  0  0
   11.7951   15.7967   24.1918 H    0  0  0  0  0  0  0  0  0  0  0  0
    9.6592   14.7647   24.9588 H    0  0  0  0  0  0  0  0  0  0  0  0
    9.4034   16.2883   24.1697 H    0  0  0  0  0  0  0  0  0  0  0  0
    8.2150   14.7754   20.8978 H    0  0  0  0  0  0  0  0  0  0  0  0
    8.6191   16.2786   21.6651 H    0  0  0  0  0  0  0  0  0  0  0  0
    9.2446    8.2027   24.2018 H    0  0  0  0  0  0  0  0  0  0  0  0
   10.1468    8.8391   22.8175 H    0  0  0  0  0  0  0  0  0  0  0  0
    8.3763    8.7430   22.7342 H    0  0  0  0  0  0  0  0  0  0  0  0
    5.4015   13.3533   25.6423 H    0  0  0  0  0  0  0  0  0  0  0  0
    4.8955    9.0696   26.0268 H    0  0  0  0  0  0  0  0  0  0  0  0
    7.1212    8.7237   25.1749 H    0  0  0  0  0  0  0  0  0  0  0  0
    3.3917    7.7475   29.1974 H    0  0  0  0  0  0  0  0  0  0  0  0
    3.7246    7.9817   27.5015 H    0  0  0  0  0  0  0  0  0  0  0  0
    2.0821    8.1384   28.0828 H    0  0  0  0  0  0  0  0  0  0  0  0
    5.5586    9.6051   28.4101 H    0  0  0  0  0  0  0  0  0  0  0  0
    5.0468    9.7482   30.0485 H    0  0  0  0  0  0  0  0  0  0  0  0
    5.0854   11.1888   29.0414 H    0  0  0  0  0  0  0  0  0  0  0  0
    2.8650    9.7364   30.7953 H    0  0  0  0  0  0  0  0  0  0  0  0
    1.4484    9.9472   29.8069 H    0  0  0  0  0  0  0  0  0  0  0  0
    2.5270   11.3178   30.0922 H    0  0  0  0  0  0  0  0  0  0  0  0
    0.7087   12.8966   26.4578 H    0  0  0  0  0  0  0  0  0  0  0  0
    3.1141   13.3480   25.4594 H    0  0  0  0  0  0  0  0  0  0  0  0
 12 13  1  0  0  0  0
 10 12  1  0  0  0  0
  9 10  1  0  0  0  0
  7  9  1  0  0  0  0
  6  7  1  0  0  0  0
  5  6  1  0  0  0  0
  4  5  1  0  0  0  0
  2  4  1  0  0  0  0
  1  2  2  0  0  0  0
  3  2  1  0  0  0  0
 30  3  1  0  0  0  0
 31  3  1  0  0  0  0
 32  4  1  0  0  0  0
 33  5  1  0  0  0  0
 34  5  1  0  0  0  0
 35  6  1  0  0  0  0
 36  6  1  0  0  0  0
 37  7  1  0  0  0  0
 38  7  1  0  0  0  0
  8  4  1  0  0  0  0
 39  8  1  0  0  0  0
 40  8  1  0  0  0  0
 11 10  2  0  0  0  0
 14 13  1  0  0  0  0
 20 14  2  0  0  0  0
 15 14  1  0  0  0  0
 16 15  1  0  0  0  0
 41 16  1  0  0  0  0
 42 16  1  0  0  0  0
 43 16  1  0  0  0  0
 17 13  2  0  0  0  0
 44 17  1  0  0  0  0
 18 17  1  0  0  0  0
 19 18  2  0  0  0  0
 45 19  1  0  0  0  0
 46 20  1  0  0  0  0
 21 18  1  0  0  0  0
 29 21  2  0  0  0  0
 22 21  1  0  0  0  0
 23 22  1  0  0  0  0
 24 23  1  0  0  0  0
 47 24  1  0  0  0  0
 48 24  1  0  0  0  0
 49 24  1  0  0  0  0
 25 23  1  0  0  0  0
 50 25  1  0  0  0  0
 51 25  1  0  0  0  0
 52 25  1  0  0  0  0
 26 23  1  0  0  0  0
 53 26  1  0  0  0  0
 54 26  1  0  0  0  0
 55 26  1  0  0  0  0
 27 22  1  0  0  0  0
 28 27  2  0  0  0  0
 56 28  1  0  0  0  0
 57 29  1  0  0  0  0
  9  8  1  0  0  0  0
 20 19  1  0  0  0  0
 29 28  1  0  0  0  0
M  END
>  <FittedScore>
-35.45

$$$$
