A71EV2A-x6980a_lowest-energy
  FITTED

 45 48     0  0  0  0  0  0  0999 V2000
    3.7866   13.3568   26.2618 C    0  0  0  0  0  0  0  0  0  0  0  0
    5.4433   13.4728   26.9993 S    0  0  0  0  0  0  0  0  0  0  0  0
    6.2474   12.0699   26.2558 C    0  0  0  0  0  0  0  0  0  0  0  0
    5.7418   10.8126   26.6109 C    0  0  0  0  0  0  0  0  0  0  0  0
    6.2976    9.6602   26.0735 C    0  0  0  0  0  0  0  0  0  0  0  0
    7.3970    9.7352   25.1994 C    0  0  0  0  0  0  0  0  0  0  0  0
    7.9096    8.5833   24.7146 N    0  0  0  0  0  0  0  0  0  0  0  0
    8.9665    8.5622   23.8786 C    0  0  0  0  0  0  0  0  0  0  0  0
    9.6037    9.7400   23.5311 C    0  0  0  0  0  0  0  0  0  0  0  0
    9.0945   10.9514   23.9979 C    0  0  0  0  0  0  0  0  0  0  0  0
    7.9429   10.9938   24.8348 C    0  0  0  0  0  0  0  0  0  0  0  0
    7.3160   12.1767   25.3227 C    0  0  0  0  0  0  0  0  0  0  0  0
    7.7491   13.4802   24.8762 N    0  0  0  0  0  0  0  0  0  0  0  0
    7.9511   13.9008   23.5878 C    0  0  0  0  0  0  0  0  0  0  0  0
    7.3641   13.3628   22.6615 O    0  0  0  0  0  0  0  0  0  0  0  0
    9.0298   14.7496   23.3679 N    0  0  0  0  0  0  0  0  0  0  0  0
    9.1033   15.5936   22.1175 C    0  0  0  0  0  0  0  0  0  0  0  0
   10.2211   15.1184   21.0993 C    0  0  0  0  0  0  0  0  0  0  0  0
   10.2990   15.8533   19.7199 C    0  0  0  0  0  0  0  0  0  0  0  0
   11.3061   15.5225   18.8665 N    0  0  0  0  0  0  0  0  0  0  0  0
    9.5352   16.7127   19.3584 O    0  0  0  0  0  0  0  0  0  0  0  0
   11.5709   15.2334   21.8520 C    0  0  0  0  0  0  0  0  0  0  0  0
   11.5172   14.4225   23.1452 C    0  0  0  0  0  0  0  0  0  0  0  0
   11.5978   15.1972   24.4204 C    0  0  0  0  0  0  0  0  0  0  0  0
   10.3532   14.4535   24.0851 C    0  0  0  0  0  0  0  0  0  0  0  0
    3.8787   13.1715   25.1873 H    0  0  0  0  0  0  0  0  0  0  0  0
    3.2419   14.2935   26.4214 H    0  0  0  0  0  0  0  0  0  0  0  0
    3.2276   12.5385   26.7278 H    0  0  0  0  0  0  0  0  0  0  0  0
    4.8990   10.7134   27.2899 H    0  0  0  0  0  0  0  0  0  0  0  0
    5.8781    8.6823   26.3564 H    0  0  0  0  0  0  0  0  0  0  0  0
    9.3376    7.6180   23.5031 H    0  0  0  0  0  0  0  0  0  0  0  0
   10.4912    9.7207   22.9120 H    0  0  0  0  0  0  0  0  0  0  0  0
    9.6308   11.8189   23.6568 H    0  0  0  0  0  0  0  0  0  0  0  0
    8.2211   13.9980   25.6182 H    0  0  0  0  0  0  0  0  0  0  0  0
    9.3574   16.6042   22.4547 H    0  0  0  0  0  0  0  0  0  0  0  0
    8.1328   15.7208   21.6311 H    0  0  0  0  0  0  0  0  0  0  0  0
   10.0202   14.0635   20.8601 H    0  0  0  0  0  0  0  0  0  0  0  0
   11.3563   15.9236   17.9377 H    0  0  0  0  0  0  0  0  0  0  0  0
   12.0564   14.9029   19.1537 H    0  0  0  0  0  0  0  0  0  0  0  0
   11.7801   16.2916   22.0272 H    0  0  0  0  0  0  0  0  0  0  0  0
   12.3944   14.8620   21.2401 H    0  0  0  0  0  0  0  0  0  0  0  0
   11.9498   13.4321   23.0580 H    0  0  0  0  0  0  0  0  0  0  0  0
   11.5911   16.2770   24.3915 H    0  0  0  0  0  0  0  0  0  0  0  0
   12.2659   14.7909   25.1781 H    0  0  0  0  0  0  0  0  0  0  0  0
   10.1675   13.5713   24.6714 H    0  0  0  0  0  0  0  0  0  0  0  0
 13 14  1  0  0  0  0
 12 13  1  0  0  0  0
 11 12  2  0  0  0  0
 10 11  1  0  0  0  0
  9 10  2  0  0  0  0
  8  9  1  0  0  0  0
  7  8  2  0  0  0  0
  6  7  1  0  0  0  0
  5  6  2  0  0  0  0
  4  5  1  0  0  0  0
  3  4  2  0  0  0  0
  2  3  1  0  0  0  0
  1  2  1  0  0  0  0
 26  1  1  0  0  0  0
 27  1  1  0  0  0  0
 28  1  1  0  0  0  0
 29  4  1  0  0  0  0
 30  5  1  0  0  0  0
 31  8  1  0  0  0  0
 32  9  1  0  0  0  0
 33 10  1  0  0  0  0
 34 13  1  0  0  0  0
 15 14  2  0  0  0  0
 16 14  1  0  0  0  0
 17 16  1  0  0  0  0
 18 17  1  0  0  0  0
 35 17  1  0  0  0  0
 36 17  1  0  0  0  0
 19 18  1  0  0  0  0
 22 18  1  0  0  0  0
 37 18  1  0  0  0  0
 20 19  1  0  0  0  0
 21 19  2  0  0  0  0
 38 20  1  0  0  0  0
 39 20  1  0  0  0  0
 40 22  1  0  0  0  0
 41 22  1  0  0  0  0
 23 22  1  0  0  0  0
 24 23  1  0  0  0  0
 42 23  1  0  0  0  0
 43 24  1  0  0  0  0
 44 24  1  0  0  0  0
 25 24  1  0  0  0  0
 45 25  1  0  0  0  0
 11  6  1  0  0  0  0
 12  3  1  0  0  0  0
 25 16  1  0  0  0  0
 25 23  1  0  0  0  0
M  END
>  <FittedScore>
-34.46

$$$$
