A71EV2A-x4727a_lowest-energy
  FITTED

 42 43     0  0  0  0  0  0  0999 V2000
    9.7110   16.7389   19.0051 O    0  0  0  0  0  0  0  0  0  0  0  0
   10.1920   15.7064   19.4266 C    0  0  0  0  0  0  0  0  0  0  0  0
   10.6626   14.7884   18.5622 N    0  0  0  0  0  0  0  0  0  0  0  0
   10.1814   15.2893   20.8966 C    0  0  0  0  0  0  0  0  0  0  0  0
   11.2244   16.0984   21.7225 C    0  0  0  0  0  0  0  0  0  0  0  0
   11.2040   15.6747   23.2199 C    0  0  0  0  0  0  0  0  0  0  0  0
    9.7584   15.6384   23.7965 C    0  0  0  0  0  0  0  0  0  0  0  0
    8.7652   15.3658   21.5544 C    0  0  0  0  0  0  0  0  0  0  0  0
    8.7993   14.8340   22.9510 N    0  0  0  0  0  0  0  0  0  0  0  0
    8.0493   13.7513   23.3551 C    0  0  0  0  0  0  0  0  0  0  0  0
    7.0938   13.3120   22.7265 O    0  0  0  0  0  0  0  0  0  0  0  0
    8.5449   13.0766   24.4214 N    0  0  0  0  0  0  0  0  0  0  0  0
    7.9480   11.9529   25.0642 C    0  0  0  0  0  0  0  0  0  0  0  0
    8.3491   10.6385   24.9481 C    0  0  0  0  0  0  0  0  0  0  0  0
    9.5165   10.1428   24.1189 C    0  0  0  0  0  0  0  0  0  0  0  0
    7.3971    9.7484   25.6469 N    0  0  0  0  0  0  0  0  0  0  0  0
    6.5712   10.6757   26.2160 N    0  0  0  0  0  0  0  0  0  0  0  0
    5.4813   10.2300   27.0954 C    0  0  0  0  0  0  0  0  0  0  0  0
    6.8336   11.9688   25.8702 C    0  0  0  0  0  0  0  0  0  0  0  0
    5.9125   13.4072   26.3668 S    0  0  0  0  0  0  0  0  0  0  0  0
    7.1166   14.1552   27.5154 C    0  0  0  0  0  0  0  0  0  0  0  0
   10.6072   14.9676   17.5651 H    0  0  0  0  0  0  0  0  0  0  0  0
   10.8755   13.8444   18.8820 H    0  0  0  0  0  0  0  0  0  0  0  0
   10.4876   14.2368   20.9551 H    0  0  0  0  0  0  0  0  0  0  0  0
   12.2257   15.9320   21.3162 H    0  0  0  0  0  0  0  0  0  0  0  0
   11.0233   17.1714   21.6381 H    0  0  0  0  0  0  0  0  0  0  0  0
   11.6626   14.6870   23.3253 H    0  0  0  0  0  0  0  0  0  0  0  0
   11.8209   16.3709   23.7957 H    0  0  0  0  0  0  0  0  0  0  0  0
    9.8037   15.2955   24.8329 H    0  0  0  0  0  0  0  0  0  0  0  0
    9.3889   16.6669   23.8684 H    0  0  0  0  0  0  0  0  0  0  0  0
    8.0600   14.8147   20.9278 H    0  0  0  0  0  0  0  0  0  0  0  0
    8.4007   16.3989   21.5636 H    0  0  0  0  0  0  0  0  0  0  0  0
    9.4777   13.2985   24.7374 H    0  0  0  0  0  0  0  0  0  0  0  0
    9.8349    9.1500   24.4409 H    0  0  0  0  0  0  0  0  0  0  0  0
   10.3732   10.8134   24.2154 H    0  0  0  0  0  0  0  0  0  0  0  0
    9.2351   10.0958   23.0656 H    0  0  0  0  0  0  0  0  0  0  0  0
    5.5715   10.6756   28.0890 H    0  0  0  0  0  0  0  0  0  0  0  0
    5.4662    9.1465   27.2410 H    0  0  0  0  0  0  0  0  0  0  0  0
    4.5049   10.5081   26.6919 H    0  0  0  0  0  0  0  0  0  0  0  0
    8.0347   14.4133   26.9837 H    0  0  0  0  0  0  0  0  0  0  0  0
    7.3541   13.4494   28.3148 H    0  0  0  0  0  0  0  0  0  0  0  0
    6.6973   15.0617   27.9512 H    0  0  0  0  0  0  0  0  0  0  0  0
  9 10  1  0  0  0  0
  7  9  1  0  0  0  0
  6  7  1  0  0  0  0
  5  6  1  0  0  0  0
  4  5  1  0  0  0  0
  2  4  1  0  0  0  0
  1  2  2  0  0  0  0
  3  2  1  0  0  0  0
 22  3  1  0  0  0  0
 23  3  1  0  0  0  0
 24  4  1  0  0  0  0
 25  5  1  0  0  0  0
 26  5  1  0  0  0  0
 27  6  1  0  0  0  0
 28  6  1  0  0  0  0
 29  7  1  0  0  0  0
 30  7  1  0  0  0  0
  8  4  1  0  0  0  0
 31  8  1  0  0  0  0
 32  8  1  0  0  0  0
 11 10  2  0  0  0  0
 12 10  1  0  0  0  0
 33 12  1  0  0  0  0
 13 12  1  0  0  0  0
 14 13  1  0  0  0  0
 15 14  1  0  0  0  0
 34 15  1  0  0  0  0
 35 15  1  0  0  0  0
 36 15  1  0  0  0  0
 16 14  2  0  0  0  0
 17 16  1  0  0  0  0
 18 17  1  0  0  0  0
 37 18  1  0  0  0  0
 38 18  1  0  0  0  0
 39 18  1  0  0  0  0
 19 13  2  0  0  0  0
 20 19  1  0  0  0  0
 21 20  1  0  0  0  0
 40 21  1  0  0  0  0
 41 21  1  0  0  0  0
 42 21  1  0  0  0  0
  9  8  1  0  0  0  0
 19 17  1  0  0  0  0
M  END
>  <FittedScore>
-31.28

$$$$
