A71EV2A-x7491a_best-RMSD
  FITTED

 59 61     0  0  0  0  0  0  0999 V2000
    9.8515   16.7178   19.1363 O    0  0  0  0  0  0  0  0  0  0  0  0
   10.2944   15.6646   19.5469 C    0  0  0  0  0  0  0  0  0  0  0  0
   10.8138   14.7778   18.6899 N    0  0  0  0  0  0  0  0  0  0  0  0
   10.2276   15.2094   20.9969 C    0  0  0  0  0  0  0  0  0  0  0  0
   11.2759   15.9758   21.8590 C    0  0  0  0  0  0  0  0  0  0  0  0
   11.1469   15.6067   23.3580 C    0  0  0  0  0  0  0  0  0  0  0  0
    9.6753   15.7319   23.8299 C    0  0  0  0  0  0  0  0  0  0  0  0
    8.7796   15.2826   21.5858 C    0  0  0  0  0  0  0  0  0  0  0  0
    8.7386   14.8650   23.0230 N    0  0  0  0  0  0  0  0  0  0  0  0
    8.0028   13.7900   23.4859 C    0  0  0  0  0  0  0  0  0  0  0  0
    7.1965   13.1975   22.7793 O    0  0  0  0  0  0  0  0  0  0  0  0
    8.3323   13.2472   24.8780 C    0  0  0  0  0  0  0  0  0  0  0  0
    7.5260   12.0115   25.3117 C    0  0  0  0  0  0  0  0  0  0  0  0
    7.8912   10.7104   24.8522 C    0  0  0  0  0  0  0  0  0  0  0  0
    9.2689   10.4494   23.7535 S    0  0  0  0  0  0  0  0  0  0  0  0
    9.3577    8.6543   23.4501 C    0  0  0  0  0  0  0  0  0  0  0  0
    6.3703   12.1038   26.1446 C    0  0  0  0  0  0  0  0  0  0  0  0
    5.7422   10.9652   26.5343 N    0  0  0  0  0  0  0  0  0  0  0  0
    6.1602    9.7649   26.0741 C    0  0  0  0  0  0  0  0  0  0  0  0
    7.1958    9.6013   25.2248 N    0  0  0  0  0  0  0  0  0  0  0  0
    5.8025   13.2915   26.6036 N    0  0  0  0  0  0  0  0  0  0  0  0
    4.3441   13.5683   26.5365 C    0  0  0  0  0  0  0  0  0  0  0  0
    3.9676   14.3926   25.2524 C    0  0  0  0  0  0  0  0  0  0  0  0
    4.4758   15.8682   25.2335 C    0  0  0  0  0  0  0  0  0  0  0  0
    2.4405   14.3186   24.9520 C    0  0  0  0  0  0  0  0  0  0  0  0
    3.9867   14.2172   27.9009 C    0  0  0  0  0  0  0  0  0  0  0  0
    5.3051   14.7131   28.5101 C    0  0  0  0  0  0  0  0  0  0  0  0
    6.4362   14.0917   27.6726 C    0  0  0  0  0  0  0  0  0  0  0  0
   10.8448   14.9942   17.7007 H    0  0  0  0  0  0  0  0  0  0  0  0
   11.0090   13.8250   18.9997 H    0  0  0  0  0  0  0  0  0  0  0  0
   10.5096   14.1501   21.0457 H    0  0  0  0  0  0  0  0  0  0  0  0
   12.2816   15.7239   21.5130 H    0  0  0  0  0  0  0  0  0  0  0  0
   11.1570   17.0571   21.7368 H    0  0  0  0  0  0  0  0  0  0  0  0
   11.5025   14.5847   23.5246 H    0  0  0  0  0  0  0  0  0  0  0  0
   11.7842   16.2665   23.9537 H    0  0  0  0  0  0  0  0  0  0  0  0
    9.6507   15.5485   24.9027 H    0  0  0  0  0  0  0  0  0  0  0  0
    9.3590   16.7771   23.7419 H    0  0  0  0  0  0  0  0  0  0  0  0
    8.1250   14.6738   20.9573 H    0  0  0  0  0  0  0  0  0  0  0  0
    8.3884   16.3009   21.5052 H    0  0  0  0  0  0  0  0  0  0  0  0
    9.3999   13.0192   24.9360 H    0  0  0  0  0  0  0  0  0  0  0  0
    8.2057   14.0362   25.6034 H    0  0  0  0  0  0  0  0  0  0  0  0
    8.4409    8.3155   22.9604 H    0  0  0  0  0  0  0  0  0  0  0  0
    9.4923    8.1190   24.3929 H    0  0  0  0  0  0  0  0  0  0  0  0
   10.2055    8.4294   22.7988 H    0  0  0  0  0  0  0  0  0  0  0  0
    5.6155    8.8813   26.3933 H    0  0  0  0  0  0  0  0  0  0  0  0
    3.7639   12.6422   26.4909 H    0  0  0  0  0  0  0  0  0  0  0  0
    4.4581   13.8956   24.4069 H    0  0  0  0  0  0  0  0  0  0  0  0
    5.5620   15.9122   25.3372 H    0  0  0  0  0  0  0  0  0  0  0  0
    4.0266   16.4711   26.0248 H    0  0  0  0  0  0  0  0  0  0  0  0
    4.2274   16.3467   24.2825 H    0  0  0  0  0  0  0  0  0  0  0  0
    1.8491   14.8005   25.7346 H    0  0  0  0  0  0  0  0  0  0  0  0
    2.1032   13.2817   24.8661 H    0  0  0  0  0  0  0  0  0  0  0  0
    2.2073   14.8078   24.0033 H    0  0  0  0  0  0  0  0  0  0  0  0
    3.2629   15.0318   27.8174 H    0  0  0  0  0  0  0  0  0  0  0  0
    3.5399   13.4695   28.5626 H    0  0  0  0  0  0  0  0  0  0  0  0
    5.3545   15.8057   28.4603 H    0  0  0  0  0  0  0  0  0  0  0  0
    5.3848   14.4246   29.5628 H    0  0  0  0  0  0  0  0  0  0  0  0
    7.0388   14.9068   27.2646 H    0  0  0  0  0  0  0  0  0  0  0  0
    7.0939   13.4898   28.3060 H    0  0  0  0  0  0  0  0  0  0  0  0
  9 10  1  0  0  0  0
  7  9  1  0  0  0  0
  6  7  1  0  0  0  0
  5  6  1  0  0  0  0
  4  5  1  0  0  0  0
  2  4  1  0  0  0  0
  1  2  2  0  0  0  0
  3  2  1  0  0  0  0
 29  3  1  0  0  0  0
 30  3  1  0  0  0  0
 31  4  1  0  0  0  0
 32  5  1  0  0  0  0
 33  5  1  0  0  0  0
 34  6  1  0  0  0  0
 35  6  1  0  0  0  0
 36  7  1  0  0  0  0
 37  7  1  0  0  0  0
  8  4  1  0  0  0  0
 38  8  1  0  0  0  0
 39  8  1  0  0  0  0
 11 10  2  0  0  0  0
 12 10  1  0  0  0  0
 40 12  1  0  0  0  0
 41 12  1  0  0  0  0
 13 12  1  0  0  0  0
 14 13  1  0  0  0  0
 20 14  2  0  0  0  0
 15 14  1  0  0  0  0
 16 15  1  0  0  0  0
 42 16  1  0  0  0  0
 43 16  1  0  0  0  0
 44 16  1  0  0  0  0
 17 13  2  0  0  0  0
 18 17  1  0  0  0  0
 19 18  2  0  0  0  0
 45 19  1  0  0  0  0
 21 17  1  0  0  0  0
 28 21  1  0  0  0  0
 22 21  1  0  0  0  0
 23 22  1  0  0  0  0
 46 22  1  0  0  0  0
 47 23  1  0  0  0  0
 24 23  1  0  0  0  0
 48 24  1  0  0  0  0
 49 24  1  0  0  0  0
 50 24  1  0  0  0  0
 25 23  1  0  0  0  0
 51 25  1  0  0  0  0
 52 25  1  0  0  0  0
 53 25  1  0  0  0  0
 26 22  1  0  0  0  0
 54 26  1  0  0  0  0
 55 26  1  0  0  0  0
 27 26  1  0  0  0  0
 56 27  1  0  0  0  0
 57 27  1  0  0  0  0
 58 28  1  0  0  0  0
 59 28  1  0  0  0  0
  9  8  1  0  0  0  0
 20 19  1  0  0  0  0
 28 27  1  0  0  0  0
M  END
>  <FittedScore>
-35.48

$$$$
