A71EV2A-x5572a_lowest-energy
  FITTED

 39 41     0  0  0  0  0  0  0999 V2000
    6.8787   16.4769   24.3310 C    0  0  0  0  0  0  0  0  0  0  0  0
    7.0444   14.9518   24.4450 C    0  0  0  0  0  0  0  0  0  0  0  0
    6.0417   14.2311   25.1159 C    0  0  0  0  0  0  0  0  0  0  0  0
    6.1236   12.8441   25.2669 C    0  0  0  0  0  0  0  0  0  0  0  0
    7.2102   12.1370   24.7286 C    0  0  0  0  0  0  0  0  0  0  0  0
    7.2771   10.7407   24.8886 C    0  0  0  0  0  0  0  0  0  0  0  0
    8.3351   10.0157   24.3252 C    0  0  0  0  0  0  0  0  0  0  0  0
    9.3423   10.6799   23.6205 C    0  0  0  0  0  0  0  0  0  0  0  0
    9.2983   12.0711   23.4721 C    0  0  0  0  0  0  0  0  0  0  0  0
    8.2320   12.8286   24.0212 C    0  0  0  0  0  0  0  0  0  0  0  0
    8.1540   14.2460   23.9008 C    0  0  0  0  0  0  0  0  0  0  0  0
    9.2306   14.9829   23.2742 N    0  0  0  0  0  0  0  0  0  0  0  0
    9.0566   15.3063   21.8347 C    0  0  0  0  0  0  0  0  0  0  0  0
   10.3986   15.4477   21.0730 C    0  0  0  0  0  0  0  0  0  0  0  0
   10.1736   15.8222   19.6088 C    0  0  0  0  0  0  0  0  0  0  0  0
   10.4085   14.8347   18.7221 N    0  0  0  0  0  0  0  0  0  0  0  0
    9.6260   16.8479   19.2478 O    0  0  0  0  0  0  0  0  0  0  0  0
   11.2972   16.4778   21.8046 C    0  0  0  0  0  0  0  0  0  0  0  0
   11.5020   16.0961   23.2983 C    0  0  0  0  0  0  0  0  0  0  0  0
   10.3437   15.3627   23.9950 C    0  0  0  0  0  0  0  0  0  0  0  0
   10.4628   15.0756   25.1765 O    0  0  0  0  0  0  0  0  0  0  0  0
    7.8183   17.0088   24.5020 H    0  0  0  0  0  0  0  0  0  0  0  0
    6.1627   16.8750   25.0544 H    0  0  0  0  0  0  0  0  0  0  0  0
    6.5199   16.7353   23.3331 H    0  0  0  0  0  0  0  0  0  0  0  0
    5.1825   14.7492   25.5341 H    0  0  0  0  0  0  0  0  0  0  0  0
    5.3314   12.3256   25.8019 H    0  0  0  0  0  0  0  0  0  0  0  0
    6.5012   10.2054   25.4328 H    0  0  0  0  0  0  0  0  0  0  0  0
    8.3740    8.9350   24.4372 H    0  0  0  0  0  0  0  0  0  0  0  0
   10.1678   10.1207   23.1867 H    0  0  0  0  0  0  0  0  0  0  0  0
   10.1097   12.5368   22.9192 H    0  0  0  0  0  0  0  0  0  0  0  0
    8.4865   16.2379   21.7595 H    0  0  0  0  0  0  0  0  0  0  0  0
    8.4506   14.5358   21.3443 H    0  0  0  0  0  0  0  0  0  0  0  0
   10.9075   14.4756   21.1306 H    0  0  0  0  0  0  0  0  0  0  0  0
   10.6605   13.8965   19.0349 H    0  0  0  0  0  0  0  0  0  0  0  0
   10.3303   15.0114   17.7290 H    0  0  0  0  0  0  0  0  0  0  0  0
   10.8504   17.4771   21.7463 H    0  0  0  0  0  0  0  0  0  0  0  0
   12.2684   16.5391   21.3034 H    0  0  0  0  0  0  0  0  0  0  0  0
   11.7133   17.0112   23.8581 H    0  0  0  0  0  0  0  0  0  0  0  0
   12.3975   15.4735   23.3758 H    0  0  0  0  0  0  0  0  0  0  0  0
 11 12  1  0  0  0  0
 10 11  2  0  0  0  0
  9 10  1  0  0  0  0
  8  9  2  0  0  0  0
  7  8  1  0  0  0  0
  6  7  2  0  0  0  0
  5  6  1  0  0  0  0
  4  5  2  0  0  0  0
  3  4  1  0  0  0  0
  2  3  2  0  0  0  0
  1  2  1  0  0  0  0
 22  1  1  0  0  0  0
 23  1  1  0  0  0  0
 24  1  1  0  0  0  0
 25  3  1  0  0  0  0
 26  4  1  0  0  0  0
 27  6  1  0  0  0  0
 28  7  1  0  0  0  0
 29  8  1  0  0  0  0
 30  9  1  0  0  0  0
 13 12  1  0  0  0  0
 14 13  1  0  0  0  0
 31 13  1  0  0  0  0
 32 13  1  0  0  0  0
 15 14  1  0  0  0  0
 18 14  1  0  0  0  0
 33 14  1  0  0  0  0
 16 15  1  0  0  0  0
 17 15  2  0  0  0  0
 34 16  1  0  0  0  0
 35 16  1  0  0  0  0
 19 18  1  0  0  0  0
 36 18  1  0  0  0  0
 37 18  1  0  0  0  0
 20 19  1  0  0  0  0
 38 19  1  0  0  0  0
 39 19  1  0  0  0  0
 21 20  2  0  0  0  0
 10  5  1  0  0  0  0
 11  2  1  0  0  0  0
 20 12  1  0  0  0  0
M  END
>  <FittedScore>
-34.55

$$$$
