A71EV2A-x5572a_best-RMSD
  FITTED

 39 41     0  0  0  0  0  0  0999 V2000
    6.9496   16.4587   24.3841 C    0  0  0  0  0  0  0  0  0  0  0  0
    7.0861   14.9313   24.5115 C    0  0  0  0  0  0  0  0  0  0  0  0
    6.0951   14.2342   25.2246 C    0  0  0  0  0  0  0  0  0  0  0  0
    6.1567   12.8478   25.3833 C    0  0  0  0  0  0  0  0  0  0  0  0
    7.2105   12.1164   24.8162 C    0  0  0  0  0  0  0  0  0  0  0  0
    7.2506   10.7192   24.9769 C    0  0  0  0  0  0  0  0  0  0  0  0
    8.2802    9.9739   24.3914 C    0  0  0  0  0  0  0  0  0  0  0  0
    9.2864   10.6142   23.6622 C    0  0  0  0  0  0  0  0  0  0  0  0
    9.2675   12.0051   23.5106 C    0  0  0  0  0  0  0  0  0  0  0  0
    8.2285   12.7862   24.0795 C    0  0  0  0  0  0  0  0  0  0  0  0
    8.1710   14.2041   23.9459 C    0  0  0  0  0  0  0  0  0  0  0  0
    9.2495   14.9169   23.2894 N    0  0  0  0  0  0  0  0  0  0  0  0
    9.0809   15.1691   21.8324 C    0  0  0  0  0  0  0  0  0  0  0  0
   10.4120   15.3694   21.0607 C    0  0  0  0  0  0  0  0  0  0  0  0
   10.1689   15.7590   19.6015 C    0  0  0  0  0  0  0  0  0  0  0  0
   10.4439   14.8038   18.6916 N    0  0  0  0  0  0  0  0  0  0  0  0
    9.6472   16.8061   19.2587 O    0  0  0  0  0  0  0  0  0  0  0  0
   11.2878   16.4119   21.8023 C    0  0  0  0  0  0  0  0  0  0  0  0
   11.5551   15.9559   23.2620 C    0  0  0  0  0  0  0  0  0  0  0  0
   10.3635   15.3159   23.9971 C    0  0  0  0  0  0  0  0  0  0  0  0
   10.4760   15.0597   25.1846 O    0  0  0  0  0  0  0  0  0  0  0  0
    6.7469   16.7398   23.3483 H    0  0  0  0  0  0  0  0  0  0  0  0
    7.8642   16.9647   24.7018 H    0  0  0  0  0  0  0  0  0  0  0  0
    6.1372   16.8628   24.9919 H    0  0  0  0  0  0  0  0  0  0  0  0
    5.2607   14.7685   25.6707 H    0  0  0  0  0  0  0  0  0  0  0  0
    5.3731   12.3461   25.9479 H    0  0  0  0  0  0  0  0  0  0  0  0
    6.4775   10.2012   25.5409 H    0  0  0  0  0  0  0  0  0  0  0  0
    8.3015    8.8934   24.5059 H    0  0  0  0  0  0  0  0  0  0  0  0
   10.0886   10.0356   23.2117 H    0  0  0  0  0  0  0  0  0  0  0  0
   10.0742   12.4521   22.9366 H    0  0  0  0  0  0  0  0  0  0  0  0
    8.4429   16.0475   21.7060 H    0  0  0  0  0  0  0  0  0  0  0  0
    8.5409   14.3325   21.3757 H    0  0  0  0  0  0  0  0  0  0  0  0
   10.9487   14.4109   21.1030 H    0  0  0  0  0  0  0  0  0  0  0  0
   10.4010   15.0143   17.7031 H    0  0  0  0  0  0  0  0  0  0  0  0
   10.7124   13.8629   18.9779 H    0  0  0  0  0  0  0  0  0  0  0  0
   10.7945   17.3889   21.8098 H    0  0  0  0  0  0  0  0  0  0  0  0
   12.2386   16.5433   21.2753 H    0  0  0  0  0  0  0  0  0  0  0  0
   11.9070   16.8178   23.8341 H    0  0  0  0  0  0  0  0  0  0  0  0
   12.3790   15.2360   23.2507 H    0  0  0  0  0  0  0  0  0  0  0  0
 11 12  1  0  0  0  0
 10 11  2  0  0  0  0
  9 10  1  0  0  0  0
  8  9  2  0  0  0  0
  7  8  1  0  0  0  0
  6  7  2  0  0  0  0
  5  6  1  0  0  0  0
  4  5  2  0  0  0  0
  3  4  1  0  0  0  0
  2  3  2  0  0  0  0
  1  2  1  0  0  0  0
 22  1  1  0  0  0  0
 23  1  1  0  0  0  0
 24  1  1  0  0  0  0
 25  3  1  0  0  0  0
 26  4  1  0  0  0  0
 27  6  1  0  0  0  0
 28  7  1  0  0  0  0
 29  8  1  0  0  0  0
 30  9  1  0  0  0  0
 13 12  1  0  0  0  0
 14 13  1  0  0  0  0
 31 13  1  0  0  0  0
 32 13  1  0  0  0  0
 15 14  1  0  0  0  0
 18 14  1  0  0  0  0
 33 14  1  0  0  0  0
 16 15  1  0  0  0  0
 17 15  2  0  0  0  0
 34 16  1  0  0  0  0
 35 16  1  0  0  0  0
 19 18  1  0  0  0  0
 36 18  1  0  0  0  0
 37 18  1  0  0  0  0
 20 19  1  0  0  0  0
 38 19  1  0  0  0  0
 39 19  1  0  0  0  0
 21 20  2  0  0  0  0
 10  5  1  0  0  0  0
 11  2  1  0  0  0  0
 20 12  1  0  0  0  0
M  END
>  <FittedScore>
-35.11

$$$$
