A71EV2A-x4748a_best-RMSD
  FITTED

 38 39     0  0  0  0  0  0  0999 V2000
    9.7878   16.7272   19.3057 O    0  0  0  0  0  0  0  0  0  0  0  0
   10.3672   15.7102   19.6371 C    0  0  0  0  0  0  0  0  0  0  0  0
   10.8042   14.8317   18.7172 N    0  0  0  0  0  0  0  0  0  0  0  0
   10.4054   15.1901   21.0554 C    0  0  0  0  0  0  0  0  0  0  0  0
   11.1903   16.0762   21.8961 O    0  0  0  0  0  0  0  0  0  0  0  0
   11.3214   15.6338   23.2720 C    0  0  0  0  0  0  0  0  0  0  0  0
    9.9088   15.4737   23.8947 C    0  0  0  0  0  0  0  0  0  0  0  0
    8.9747   15.0258   21.6394 C    0  0  0  0  0  0  0  0  0  0  0  0
    8.9784   14.6109   23.0800 N    0  0  0  0  0  0  0  0  0  0  0  0
    8.1128   13.6510   23.5666 C    0  0  0  0  0  0  0  0  0  0  0  0
    7.2918   13.1012   22.8447 O    0  0  0  0  0  0  0  0  0  0  0  0
    8.2350   13.2403   25.0432 C    0  0  0  0  0  0  0  0  0  0  0  0
    7.4041   12.0172   25.4456 C    0  0  0  0  0  0  0  0  0  0  0  0
    7.7180   10.7071   24.9947 C    0  0  0  0  0  0  0  0  0  0  0  0
    9.1632   10.4384   23.9506 S    0  0  0  0  0  0  0  0  0  0  0  0
    9.1993    8.6865   23.4700 C    0  0  0  0  0  0  0  0  0  0  0  0
    6.3128   12.2150   26.3141 C    0  0  0  0  0  0  0  0  0  0  0  0
    5.5372   11.1341   26.7432 C    0  0  0  0  0  0  0  0  0  0  0  0
    5.8260    9.8478   26.2815 C    0  0  0  0  0  0  0  0  0  0  0  0
    6.8895    9.6390   25.3973 C    0  0  0  0  0  0  0  0  0  0  0  0
   10.7850   15.0850   17.7366 H    0  0  0  0  0  0  0  0  0  0  0  0
   11.0494   13.8829   18.9955 H    0  0  0  0  0  0  0  0  0  0  0  0
   10.8869   14.2047   21.0948 H    0  0  0  0  0  0  0  0  0  0  0  0
   11.8756   14.6888   23.2974 H    0  0  0  0  0  0  0  0  0  0  0  0
   11.9046   16.3774   23.8234 H    0  0  0  0  0  0  0  0  0  0  0  0
   10.0673   15.1199   24.9099 H    0  0  0  0  0  0  0  0  0  0  0  0
    9.4573   16.4648   23.9973 H    0  0  0  0  0  0  0  0  0  0  0  0
    8.4568   14.3018   21.0016 H    0  0  0  0  0  0  0  0  0  0  0  0
    8.4010   15.9558   21.5570 H    0  0  0  0  0  0  0  0  0  0  0  0
    9.2778   13.0120   25.2777 H    0  0  0  0  0  0  0  0  0  0  0  0
    7.9725   14.0992   25.6657 H    0  0  0  0  0  0  0  0  0  0  0  0
    9.9930    8.5421   22.7332 H    0  0  0  0  0  0  0  0  0  0  0  0
    8.2507    8.4074   23.0012 H    0  0  0  0  0  0  0  0  0  0  0  0
    9.3972    8.0634   24.3363 H    0  0  0  0  0  0  0  0  0  0  0  0
    6.0663   13.2100   26.6788 H    0  0  0  0  0  0  0  0  0  0  0  0
    4.7125   11.2947   27.4329 H    0  0  0  0  0  0  0  0  0  0  0  0
    5.2189    9.0053   26.6045 H    0  0  0  0  0  0  0  0  0  0  0  0
    7.0531    8.6268   25.0494 H    0  0  0  0  0  0  0  0  0  0  0  0
  9 10  1  0  0  0  0
  7  9  1  0  0  0  0
  6  7  1  0  0  0  0
  5  6  1  0  0  0  0
  4  5  1  0  0  0  0
  2  4  1  0  0  0  0
  1  2  2  0  0  0  0
  3  2  1  0  0  0  0
 21  3  1  0  0  0  0
 22  3  1  0  0  0  0
 23  4  1  0  0  0  0
 24  6  1  0  0  0  0
 25  6  1  0  0  0  0
 26  7  1  0  0  0  0
 27  7  1  0  0  0  0
  8  4  1  0  0  0  0
 28  8  1  0  0  0  0
 29  8  1  0  0  0  0
 11 10  2  0  0  0  0
 12 10  1  0  0  0  0
 30 12  1  0  0  0  0
 31 12  1  0  0  0  0
 13 12  1  0  0  0  0
 14 13  1  0  0  0  0
 20 14  2  0  0  0  0
 15 14  1  0  0  0  0
 16 15  1  0  0  0  0
 32 16  1  0  0  0  0
 33 16  1  0  0  0  0
 34 16  1  0  0  0  0
 17 13  2  0  0  0  0
 35 17  1  0  0  0  0
 18 17  1  0  0  0  0
 36 18  1  0  0  0  0
 19 18  2  0  0  0  0
 37 19  1  0  0  0  0
 38 20  1  0  0  0  0
  9  8  1  0  0  0  0
 20 19  1  0  0  0  0
M  END
>  <FittedScore>
-29.86

$$$$
