A71EV2A-x4748a_lowest-energy
  FITTED

 38 39     0  0  0  0  0  0  0999 V2000
    9.6981   16.6930   19.2889 O    0  0  0  0  0  0  0  0  0  0  0  0
   10.3273   15.7026   19.6029 C    0  0  0  0  0  0  0  0  0  0  0  0
   10.8527   14.8735   18.6786 N    0  0  0  0  0  0  0  0  0  0  0  0
   10.3696   15.1815   21.0191 C    0  0  0  0  0  0  0  0  0  0  0  0
   11.0730   16.1319   21.8693 O    0  0  0  0  0  0  0  0  0  0  0  0
   11.2006   15.7126   23.2503 C    0  0  0  0  0  0  0  0  0  0  0  0
    9.7946   15.4357   23.8469 C    0  0  0  0  0  0  0  0  0  0  0  0
    8.9319   14.9569   21.5691 C    0  0  0  0  0  0  0  0  0  0  0  0
    8.9136   14.5368   23.0044 N    0  0  0  0  0  0  0  0  0  0  0  0
    8.0539   13.5697   23.4724 C    0  0  0  0  0  0  0  0  0  0  0  0
    7.2370   13.0247   22.7458 O    0  0  0  0  0  0  0  0  0  0  0  0
    8.1379   13.1831   24.9567 C    0  0  0  0  0  0  0  0  0  0  0  0
    7.3674   11.9177   25.3336 C    0  0  0  0  0  0  0  0  0  0  0  0
    7.7671   10.6245   24.8933 C    0  0  0  0  0  0  0  0  0  0  0  0
    9.2399   10.4247   23.8796 S    0  0  0  0  0  0  0  0  0  0  0  0
    9.4341    8.6616   23.4820 C    0  0  0  0  0  0  0  0  0  0  0  0
    6.2296   12.0598   26.1457 C    0  0  0  0  0  0  0  0  0  0  0  0
    5.5016   10.9414   26.5578 C    0  0  0  0  0  0  0  0  0  0  0  0
    5.8897    9.6705   26.1260 C    0  0  0  0  0  0  0  0  0  0  0  0
    6.9953    9.5174   25.2797 C    0  0  0  0  0  0  0  0  0  0  0  0
   10.8857   15.1508   17.7062 H    0  0  0  0  0  0  0  0  0  0  0  0
   11.1879   13.9515   18.9542 H    0  0  0  0  0  0  0  0  0  0  0  0
   10.9105   14.2255   21.0759 H    0  0  0  0  0  0  0  0  0  0  0  0
   11.8368   14.8267   23.3073 H    0  0  0  0  0  0  0  0  0  0  0  0
   11.7014   16.5090   23.8056 H    0  0  0  0  0  0  0  0  0  0  0  0
    9.9748   15.0515   24.8473 H    0  0  0  0  0  0  0  0  0  0  0  0
    9.2766   16.3866   23.9908 H    0  0  0  0  0  0  0  0  0  0  0  0
    8.4423   14.2235   20.9192 H    0  0  0  0  0  0  0  0  0  0  0  0
    8.3498   15.8808   21.4757 H    0  0  0  0  0  0  0  0  0  0  0  0
    9.1750   13.0226   25.2583 H    0  0  0  0  0  0  0  0  0  0  0  0
    7.7851   14.0337   25.5455 H    0  0  0  0  0  0  0  0  0  0  0  0
   10.2894    8.5420   22.8196 H    0  0  0  0  0  0  0  0  0  0  0  0
    8.5397    8.3003   22.9753 H    0  0  0  0  0  0  0  0  0  0  0  0
    9.6130    8.0830   24.3902 H    0  0  0  0  0  0  0  0  0  0  0  0
    5.8968   13.0439   26.4722 H    0  0  0  0  0  0  0  0  0  0  0  0
    4.6330   11.0594   27.1967 H    0  0  0  0  0  0  0  0  0  0  0  0
    5.3227    8.7971   26.4326 H    0  0  0  0  0  0  0  0  0  0  0  0
    7.2347    8.5125   24.9551 H    0  0  0  0  0  0  0  0  0  0  0  0
  9 10  1  0  0  0  0
  7  9  1  0  0  0  0
  6  7  1  0  0  0  0
  5  6  1  0  0  0  0
  4  5  1  0  0  0  0
  2  4  1  0  0  0  0
  1  2  2  0  0  0  0
  3  2  1  0  0  0  0
 21  3  1  0  0  0  0
 22  3  1  0  0  0  0
 23  4  1  0  0  0  0
 24  6  1  0  0  0  0
 25  6  1  0  0  0  0
 26  7  1  0  0  0  0
 27  7  1  0  0  0  0
  8  4  1  0  0  0  0
 28  8  1  0  0  0  0
 29  8  1  0  0  0  0
 11 10  2  0  0  0  0
 12 10  1  0  0  0  0
 30 12  1  0  0  0  0
 31 12  1  0  0  0  0
 13 12  1  0  0  0  0
 14 13  1  0  0  0  0
 20 14  2  0  0  0  0
 15 14  1  0  0  0  0
 16 15  1  0  0  0  0
 32 16  1  0  0  0  0
 33 16  1  0  0  0  0
 34 16  1  0  0  0  0
 17 13  2  0  0  0  0
 35 17  1  0  0  0  0
 18 17  1  0  0  0  0
 36 18  1  0  0  0  0
 19 18  2  0  0  0  0
 37 19  1  0  0  0  0
 38 20  1  0  0  0  0
  9  8  1  0  0  0  0
 20 19  1  0  0  0  0
M  END
>  <FittedScore>
-30.34

$$$$
