A71EV2A-x5401a_best-RMSD
  FITTED

 34 35     0  0  0  0  0  0  0999 V2000
   10.7455   14.7948   18.6457 N    0  0  0  0  0  0  0  0  0  0  0  0
   10.2500   15.7231   19.4774 C    0  0  0  0  0  0  0  0  0  0  0  0
    9.8115   16.7606   19.0252 O    0  0  0  0  0  0  0  0  0  0  0  0
   10.1690   15.3255   20.9496 C    0  0  0  0  0  0  0  0  0  0  0  0
   11.1697   16.1553   21.8070 C    0  0  0  0  0  0  0  0  0  0  0  0
   11.1157   15.6936   23.2850 C    0  0  0  0  0  0  0  0  0  0  0  0
    9.6551   15.6549   23.8322 C    0  0  0  0  0  0  0  0  0  0  0  0
    8.6877   14.9173   22.9494 N    0  0  0  0  0  0  0  0  0  0  0  0
    7.8974   13.8535   23.3358 C    0  0  0  0  0  0  0  0  0  0  0  0
    7.2101   13.2278   22.5371 O    0  0  0  0  0  0  0  0  0  0  0  0
    7.9630   13.4962   24.6525 O    0  0  0  0  0  0  0  0  0  0  0  0
    7.4024   12.3437   25.1747 C    0  0  0  0  0  0  0  0  0  0  0  0
    6.4353   12.4544   26.1849 C    0  0  0  0  0  0  0  0  0  0  0  0
    5.8334   11.2982   26.7046 C    0  0  0  0  0  0  0  0  0  0  0  0
    6.1969   10.0408   26.2070 C    0  0  0  0  0  0  0  0  0  0  0  0
    7.1734    9.9297   25.2035 C    0  0  0  0  0  0  0  0  0  0  0  0
    7.7965   11.0769   24.7025 C    0  0  0  0  0  0  0  0  0  0  0  0
    8.7379   15.4350   21.5489 C    0  0  0  0  0  0  0  0  0  0  0  0
   10.9746   13.8741   19.0040 H    0  0  0  0  0  0  0  0  0  0  0  0
   10.7384   14.9569   17.6428 H    0  0  0  0  0  0  0  0  0  0  0  0
   10.4590   14.2684   21.0499 H    0  0  0  0  0  0  0  0  0  0  0  0
   10.9325   17.2205   21.7405 H    0  0  0  0  0  0  0  0  0  0  0  0
   12.1843   16.0311   21.4190 H    0  0  0  0  0  0  0  0  0  0  0  0
   11.7267   16.3612   23.8974 H    0  0  0  0  0  0  0  0  0  0  0  0
   11.5624   14.6977   23.3679 H    0  0  0  0  0  0  0  0  0  0  0  0
    9.2947   16.6787   23.9567 H    0  0  0  0  0  0  0  0  0  0  0  0
    9.7009   15.2420   24.8427 H    0  0  0  0  0  0  0  0  0  0  0  0
    6.1521   13.4343   26.5661 H    0  0  0  0  0  0  0  0  0  0  0  0
    5.0875   11.3781   27.4849 H    0  0  0  0  0  0  0  0  0  0  0  0
    5.7367    9.1412   26.6059 H    0  0  0  0  0  0  0  0  0  0  0  0
    7.4568    8.9558   24.8136 H    0  0  0  0  0  0  0  0  0  0  0  0
    8.5658   10.9891   23.9389 H    0  0  0  0  0  0  0  0  0  0  0  0
    8.3932   16.4720   21.5440 H    0  0  0  0  0  0  0  0  0  0  0  0
    8.0512   14.9076   20.8792 H    0  0  0  0  0  0  0  0  0  0  0  0
  8  9  1  0  0  0  0
  7  8  1  0  0  0  0
  6  7  1  0  0  0  0
  5  6  1  0  0  0  0
  4  5  1  0  0  0  0
  2  4  1  0  0  0  0
  1  2  1  0  0  0  0
 19  1  1  0  0  0  0
 20  1  1  0  0  0  0
  3  2  2  0  0  0  0
 21  4  1  0  0  0  0
 22  5  1  0  0  0  0
 23  5  1  0  0  0  0
 24  6  1  0  0  0  0
 25  6  1  0  0  0  0
 26  7  1  0  0  0  0
 27  7  1  0  0  0  0
 18  8  1  0  0  0  0
 10  9  2  0  0  0  0
 11  9  1  0  0  0  0
 12 11  1  0  0  0  0
 13 12  2  0  0  0  0
 14 13  1  0  0  0  0
 28 13  1  0  0  0  0
 15 14  2  0  0  0  0
 29 14  1  0  0  0  0
 16 15  1  0  0  0  0
 30 15  1  0  0  0  0
 17 16  2  0  0  0  0
 31 16  1  0  0  0  0
 32 17  1  0  0  0  0
 33 18  1  0  0  0  0
 34 18  1  0  0  0  0
 17 12  1  0  0  0  0
 18  4  1  0  0  0  0
M  END
>  <FittedScore>
-33.05

$$$$
