A71EV2A-x5401a_lowest-energy
  FITTED

 34 35     0  0  0  0  0  0  0999 V2000
   10.7319   14.7568   18.6017 N    0  0  0  0  0  0  0  0  0  0  0  0
   10.3053   15.7095   19.4511 C    0  0  0  0  0  0  0  0  0  0  0  0
    9.9284   16.7872   19.0359 O    0  0  0  0  0  0  0  0  0  0  0  0
   10.1986   15.2887   20.9107 C    0  0  0  0  0  0  0  0  0  0  0  0
   11.1212   16.1643   21.8100 C    0  0  0  0  0  0  0  0  0  0  0  0
   10.9635   15.7706   23.2991 C    0  0  0  0  0  0  0  0  0  0  0  0
    9.4690   15.7059   23.7296 C    0  0  0  0  0  0  0  0  0  0  0  0
    8.6130   14.8497   22.8368 N    0  0  0  0  0  0  0  0  0  0  0  0
    7.8335   13.7901   23.2465 C    0  0  0  0  0  0  0  0  0  0  0  0
    7.1470   13.1457   22.4682 O    0  0  0  0  0  0  0  0  0  0  0  0
    7.8943   13.4705   24.5745 O    0  0  0  0  0  0  0  0  0  0  0  0
    7.3708   12.3047   25.1088 C    0  0  0  0  0  0  0  0  0  0  0  0
    6.3273   12.3817   26.0459 C    0  0  0  0  0  0  0  0  0  0  0  0
    5.7698   11.2050   26.5705 C    0  0  0  0  0  0  0  0  0  0  0  0
    6.2533    9.9554   26.1536 C    0  0  0  0  0  0  0  0  0  0  0  0
    7.2980    9.8817   25.2185 C    0  0  0  0  0  0  0  0  0  0  0  0
    7.8698   11.0522   24.7076 C    0  0  0  0  0  0  0  0  0  0  0  0
    8.7206   15.2983   21.4120 C    0  0  0  0  0  0  0  0  0  0  0  0
   10.7282   14.9678   17.6127 H    0  0  0  0  0  0  0  0  0  0  0  0
   10.8851   13.8019   18.9194 H    0  0  0  0  0  0  0  0  0  0  0  0
   10.5516   14.2531   20.9971 H    0  0  0  0  0  0  0  0  0  0  0  0
   10.8819   17.2240   21.6814 H    0  0  0  0  0  0  0  0  0  0  0  0
   12.1610   16.0327   21.4997 H    0  0  0  0  0  0  0  0  0  0  0  0
   11.4923   16.4942   23.9179 H    0  0  0  0  0  0  0  0  0  0  0  0
   11.4351   14.7960   23.4695 H    0  0  0  0  0  0  0  0  0  0  0  0
    9.0586   16.7175   23.7421 H    0  0  0  0  0  0  0  0  0  0  0  0
    9.4486   15.3775   24.7706 H    0  0  0  0  0  0  0  0  0  0  0  0
    5.9414   13.3500   26.3563 H    0  0  0  0  0  0  0  0  0  0  0  0
    4.9546   11.2626   27.2887 H    0  0  0  0  0  0  0  0  0  0  0  0
    5.8088    9.0424   26.5443 H    0  0  0  0  0  0  0  0  0  0  0  0
    7.6671    8.9142   24.8848 H    0  0  0  0  0  0  0  0  0  0  0  0
    8.6793   10.9894   23.9828 H    0  0  0  0  0  0  0  0  0  0  0  0
    8.2997   16.3060   21.3202 H    0  0  0  0  0  0  0  0  0  0  0  0
    8.1297   14.6839   20.7275 H    0  0  0  0  0  0  0  0  0  0  0  0
  8  9  1  0  0  0  0
  7  8  1  0  0  0  0
  6  7  1  0  0  0  0
  5  6  1  0  0  0  0
  4  5  1  0  0  0  0
  2  4  1  0  0  0  0
  1  2  1  0  0  0  0
 19  1  1  0  0  0  0
 20  1  1  0  0  0  0
  3  2  2  0  0  0  0
 21  4  1  0  0  0  0
 22  5  1  0  0  0  0
 23  5  1  0  0  0  0
 24  6  1  0  0  0  0
 25  6  1  0  0  0  0
 26  7  1  0  0  0  0
 27  7  1  0  0  0  0
 18  8  1  0  0  0  0
 10  9  2  0  0  0  0
 11  9  1  0  0  0  0
 12 11  1  0  0  0  0
 13 12  2  0  0  0  0
 14 13  1  0  0  0  0
 28 13  1  0  0  0  0
 15 14  2  0  0  0  0
 29 14  1  0  0  0  0
 16 15  1  0  0  0  0
 30 15  1  0  0  0  0
 17 16  2  0  0  0  0
 31 16  1  0  0  0  0
 32 17  1  0  0  0  0
 33 18  1  0  0  0  0
 34 18  1  0  0  0  0
 17 12  1  0  0  0  0
 18  4  1  0  0  0  0
M  END
>  <FittedScore>
-33.67

$$$$
