A71EV2A-x5393a_lowest-energy
  FITTED

 39 40     0  0  0  0  0  0  0999 V2000
    9.8213   16.8660   19.2251 O    0  0  0  0  0  0  0  0  0  0  0  0
   10.3550   15.8377   19.6025 C    0  0  0  0  0  0  0  0  0  0  0  0
   10.8366   14.9423   18.7187 N    0  0  0  0  0  0  0  0  0  0  0  0
   10.4188   15.3855   21.0602 C    0  0  0  0  0  0  0  0  0  0  0  0
   11.3398   16.3099   21.9040 C    0  0  0  0  0  0  0  0  0  0  0  0
   11.4357   15.7738   23.3543 C    0  0  0  0  0  0  0  0  0  0  0  0
   10.0368   15.4939   23.9728 C    0  0  0  0  0  0  0  0  0  0  0  0
    9.0183   15.2402   21.7326 C    0  0  0  0  0  0  0  0  0  0  0  0
    9.1225   14.6541   23.1116 N    0  0  0  0  0  0  0  0  0  0  0  0
    8.3783   13.5609   23.5218 C    0  0  0  0  0  0  0  0  0  0  0  0
    7.5173   13.0758   22.8045 O    0  0  0  0  0  0  0  0  0  0  0  0
    8.6387   12.9559   24.9135 C    0  0  0  0  0  0  0  0  0  0  0  0
    7.7429   11.7631   25.2739 C    0  0  0  0  0  0  0  0  0  0  0  0
    8.0301   10.4341   24.8593 C    0  0  0  0  0  0  0  0  0  0  0  0
    9.2542   10.0720   24.0112 C    0  0  0  0  0  0  0  0  0  0  0  0
    6.5768   12.0235   26.0216 C    0  0  0  0  0  0  0  0  0  0  0  0
    5.7183   10.9845   26.3956 C    0  0  0  0  0  0  0  0  0  0  0  0
    6.0103    9.6745   26.0116 C    0  0  0  0  0  0  0  0  0  0  0  0
    7.1466    9.4064   25.2363 C    0  0  0  0  0  0  0  0  0  0  0  0
   10.7879   15.1366   17.7300 H    0  0  0  0  0  0  0  0  0  0  0  0
   11.0927   14.0051   19.0279 H    0  0  0  0  0  0  0  0  0  0  0  0
   10.8666   14.3848   21.0938 H    0  0  0  0  0  0  0  0  0  0  0  0
   12.3379   16.3485   21.4591 H    0  0  0  0  0  0  0  0  0  0  0  0
   10.9526   17.3345   21.9124 H    0  0  0  0  0  0  0  0  0  0  0  0
   12.0303   14.8546   23.3638 H    0  0  0  0  0  0  0  0  0  0  0  0
   11.9683   16.4985   23.9741 H    0  0  0  0  0  0  0  0  0  0  0  0
   10.2253   15.0620   24.9551 H    0  0  0  0  0  0  0  0  0  0  0  0
    9.5396   16.4464   24.1753 H    0  0  0  0  0  0  0  0  0  0  0  0
    8.3920   14.6394   21.0693 H    0  0  0  0  0  0  0  0  0  0  0  0
    8.5181   16.2125   21.7956 H    0  0  0  0  0  0  0  0  0  0  0  0
    9.6907   12.6672   24.9980 H    0  0  0  0  0  0  0  0  0  0  0  0
    8.4935   13.7320   25.6708 H    0  0  0  0  0  0  0  0  0  0  0  0
   10.1742   10.2913   24.5573 H    0  0  0  0  0  0  0  0  0  0  0  0
    9.2635   10.6372   23.0786 H    0  0  0  0  0  0  0  0  0  0  0  0
    9.2828    9.0122   23.7476 H    0  0  0  0  0  0  0  0  0  0  0  0
    6.3248   13.0393   26.3146 H    0  0  0  0  0  0  0  0  0  0  0  0
    4.8240   11.1962   26.9725 H    0  0  0  0  0  0  0  0  0  0  0  0
    5.3484    8.8596   26.3010 H    0  0  0  0  0  0  0  0  0  0  0  0
    7.3390    8.3764   24.9368 H    0  0  0  0  0  0  0  0  0  0  0  0
  9 10  1  0  0  0  0
  7  9  1  0  0  0  0
  6  7  1  0  0  0  0
  5  6  1  0  0  0  0
  4  5  1  0  0  0  0
  2  4  1  0  0  0  0
  1  2  2  0  0  0  0
  3  2  1  0  0  0  0
 20  3  1  0  0  0  0
 21  3  1  0  0  0  0
 22  4  1  0  0  0  0
 23  5  1  0  0  0  0
 24  5  1  0  0  0  0
 25  6  1  0  0  0  0
 26  6  1  0  0  0  0
 27  7  1  0  0  0  0
 28  7  1  0  0  0  0
  8  4  1  0  0  0  0
 29  8  1  0  0  0  0
 30  8  1  0  0  0  0
 11 10  2  0  0  0  0
 12 10  1  0  0  0  0
 31 12  1  0  0  0  0
 32 12  1  0  0  0  0
 13 12  1  0  0  0  0
 14 13  1  0  0  0  0
 19 14  2  0  0  0  0
 15 14  1  0  0  0  0
 33 15  1  0  0  0  0
 34 15  1  0  0  0  0
 35 15  1  0  0  0  0
 16 13  2  0  0  0  0
 36 16  1  0  0  0  0
 17 16  1  0  0  0  0
 37 17  1  0  0  0  0
 18 17  2  0  0  0  0
 38 18  1  0  0  0  0
 39 19  1  0  0  0  0
  9  8  1  0  0  0  0
 19 18  1  0  0  0  0
M  END
>  <FittedScore>
-31.46

$$$$
