A71EV2A-x5393a_best-RMSD
  FITTED

 39 40     0  0  0  0  0  0  0999 V2000
    9.9940   16.9177   19.2782 O    0  0  0  0  0  0  0  0  0  0  0  0
   10.4488   15.8427   19.6299 C    0  0  0  0  0  0  0  0  0  0  0  0
   10.8423   14.9289   18.7246 N    0  0  0  0  0  0  0  0  0  0  0  0
   10.4926   15.3580   21.0784 C    0  0  0  0  0  0  0  0  0  0  0  0
   11.4641   16.2194   21.9302 C    0  0  0  0  0  0  0  0  0  0  0  0
   11.4621   15.7515   23.4106 C    0  0  0  0  0  0  0  0  0  0  0  0
   10.0255   15.5965   23.9772 C    0  0  0  0  0  0  0  0  0  0  0  0
    9.0767   15.2577   21.7295 C    0  0  0  0  0  0  0  0  0  0  0  0
    9.1295   14.7279   23.1345 N    0  0  0  0  0  0  0  0  0  0  0  0
    8.3729   13.6555   23.5675 C    0  0  0  0  0  0  0  0  0  0  0  0
    7.5456   13.1305   22.8376 O    0  0  0  0  0  0  0  0  0  0  0  0
    8.6043   13.0937   24.9811 C    0  0  0  0  0  0  0  0  0  0  0  0
    7.7251   11.8910   25.3677 C    0  0  0  0  0  0  0  0  0  0  0  0
    7.9724   10.5711   24.8971 C    0  0  0  0  0  0  0  0  0  0  0  0
    9.1484   10.2228   23.9743 C    0  0  0  0  0  0  0  0  0  0  0  0
    6.6183   12.1252   26.2133 C    0  0  0  0  0  0  0  0  0  0  0  0
    5.7765   11.0777   26.6066 C    0  0  0  0  0  0  0  0  0  0  0  0
    6.0185    9.7831   26.1413 C    0  0  0  0  0  0  0  0  0  0  0  0
    7.1001    9.5363   25.2847 C    0  0  0  0  0  0  0  0  0  0  0  0
   11.0156   13.9725   19.0228 H    0  0  0  0  0  0  0  0  0  0  0  0
   10.8392   15.1503   17.7394 H    0  0  0  0  0  0  0  0  0  0  0  0
   10.8957   14.3376   21.1002 H    0  0  0  0  0  0  0  0  0  0  0  0
   12.4768   16.1311   21.5228 H    0  0  0  0  0  0  0  0  0  0  0  0
   11.1900   17.2771   21.8726 H    0  0  0  0  0  0  0  0  0  0  0  0
   11.9929   14.7990   23.4923 H    0  0  0  0  0  0  0  0  0  0  0  0
   12.0181   16.4765   24.0102 H    0  0  0  0  0  0  0  0  0  0  0  0
   10.1338   15.2466   25.0014 H    0  0  0  0  0  0  0  0  0  0  0  0
    9.5698   16.5883   24.0672 H    0  0  0  0  0  0  0  0  0  0  0  0
    8.4578   14.6404   21.0727 H    0  0  0  0  0  0  0  0  0  0  0  0
    8.5955   16.2410   21.7355 H    0  0  0  0  0  0  0  0  0  0  0  0
    9.6548   12.8145   25.0937 H    0  0  0  0  0  0  0  0  0  0  0  0
    8.4377   13.8894   25.7130 H    0  0  0  0  0  0  0  0  0  0  0  0
    9.2022    9.1557   23.7536 H    0  0  0  0  0  0  0  0  0  0  0  0
   10.0963   10.5020   24.4374 H    0  0  0  0  0  0  0  0  0  0  0  0
    9.0655   10.7407   23.0175 H    0  0  0  0  0  0  0  0  0  0  0  0
    6.3987   13.1293   26.5748 H    0  0  0  0  0  0  0  0  0  0  0  0
    4.9368   11.2714   27.2692 H    0  0  0  0  0  0  0  0  0  0  0  0
    5.3672    8.9658   26.4444 H    0  0  0  0  0  0  0  0  0  0  0  0
    7.2582    8.5178   24.9321 H    0  0  0  0  0  0  0  0  0  0  0  0
  9 10  1  0  0  0  0
  7  9  1  0  0  0  0
  6  7  1  0  0  0  0
  5  6  1  0  0  0  0
  4  5  1  0  0  0  0
  2  4  1  0  0  0  0
  1  2  2  0  0  0  0
  3  2  1  0  0  0  0
 20  3  1  0  0  0  0
 21  3  1  0  0  0  0
 22  4  1  0  0  0  0
 23  5  1  0  0  0  0
 24  5  1  0  0  0  0
 25  6  1  0  0  0  0
 26  6  1  0  0  0  0
 27  7  1  0  0  0  0
 28  7  1  0  0  0  0
  8  4  1  0  0  0  0
 29  8  1  0  0  0  0
 30  8  1  0  0  0  0
 11 10  2  0  0  0  0
 12 10  1  0  0  0  0
 31 12  1  0  0  0  0
 32 12  1  0  0  0  0
 13 12  1  0  0  0  0
 14 13  1  0  0  0  0
 19 14  2  0  0  0  0
 15 14  1  0  0  0  0
 33 15  1  0  0  0  0
 34 15  1  0  0  0  0
 35 15  1  0  0  0  0
 16 13  2  0  0  0  0
 36 16  1  0  0  0  0
 17 16  1  0  0  0  0
 37 17  1  0  0  0  0
 18 17  2  0  0  0  0
 38 18  1  0  0  0  0
 39 19  1  0  0  0  0
  9  8  1  0  0  0  0
 19 18  1  0  0  0  0
M  END
>  <FittedScore>
-30.59

$$$$
