A71EV2A-x7445a_best-RMSD
  FITTED

 50 53     0  0  0  0  0  0  0999 V2000
    9.2023    8.6899   23.4110 C    0  0  0  0  0  0  0  0  0  0  0  0
    9.0456   10.2711   24.2894 S    0  0  0  0  0  0  0  0  0  0  0  0
    7.4397   10.3847   25.0775 C    0  0  0  0  0  0  0  0  0  0  0  0
    6.6790    9.2327   25.2395 C    0  0  0  0  0  0  0  0  0  0  0  0
    5.4322    9.2663   25.8488 C    0  0  0  0  0  0  0  0  0  0  0  0
    4.9002   10.4423   26.3968 C    0  0  0  0  0  0  0  0  0  0  0  0
    3.5782   10.3806   27.0981 C    0  0  0  0  0  0  0  0  0  0  0  0
    3.2279    9.2623   27.9065 C    0  0  0  0  0  0  0  0  0  0  0  0
    1.9424    9.1504   28.4429 C    0  0  0  0  0  0  0  0  0  0  0  0
    0.9905   10.0987   28.2284 N    0  0  0  0  0  0  0  0  0  0  0  0
    1.3182   11.2009   27.4977 C    0  0  0  0  0  0  0  0  0  0  0  0
    2.5838   11.3773   26.9260 C    0  0  0  0  0  0  0  0  0  0  0  0
    5.6499   11.6244   26.2062 C    0  0  0  0  0  0  0  0  0  0  0  0
    6.8991   11.6123   25.5441 C    0  0  0  0  0  0  0  0  0  0  0  0
    7.5921   12.9503   25.3046 C    0  0  0  0  0  0  0  0  0  0  0  0
    7.7284   13.2712   23.8128 C    0  0  0  0  0  0  0  0  0  0  0  0
    6.8144   13.1017   23.0272 O    0  0  0  0  0  0  0  0  0  0  0  0
    8.7986   14.0260   23.4628 N    0  0  0  0  0  0  0  0  0  0  0  0
    8.7522   15.5083   23.3926 C    0  0  0  0  0  0  0  0  0  0  0  0
   10.0187   16.1286   22.6991 C    0  0  0  0  0  0  0  0  0  0  0  0
   10.0839   15.7912   21.1937 C    0  0  0  0  0  0  0  0  0  0  0  0
   11.1423   16.2716   20.5188 N    0  0  0  0  0  0  0  0  0  0  0  0
    9.1785   15.2979   20.5555 O    0  0  0  0  0  0  0  0  0  0  0  0
   11.3117   15.6982   23.4834 C    0  0  0  0  0  0  0  0  0  0  0  0
   11.3918   14.1715   23.4479 C    0  0  0  0  0  0  0  0  0  0  0  0
   11.1090   13.3335   24.6659 C    0  0  0  0  0  0  0  0  0  0  0  0
   10.1365   13.3493   23.5265 C    0  0  0  0  0  0  0  0  0  0  0  0
   10.1300    8.6791   22.8368 H    0  0  0  0  0  0  0  0  0  0  0  0
    8.3680    8.5617   22.7159 H    0  0  0  0  0  0  0  0  0  0  0  0
    9.2298    7.8705   24.1311 H    0  0  0  0  0  0  0  0  0  0  0  0
    7.0215    8.2608   24.8941 H    0  0  0  0  0  0  0  0  0  0  0  0
    4.8850    8.3269   25.9120 H    0  0  0  0  0  0  0  0  0  0  0  0
    3.9431    8.4704   28.1170 H    0  0  0  0  0  0  0  0  0  0  0  0
    1.6942    8.2825   29.0492 H    0  0  0  0  0  0  0  0  0  0  0  0
    0.5559   11.9623   27.3393 H    0  0  0  0  0  0  0  0  0  0  0  0
    2.7780   12.2638   26.3263 H    0  0  0  0  0  0  0  0  0  0  0  0
    5.2517   12.5658   26.5782 H    0  0  0  0  0  0  0  0  0  0  0  0
    8.5525   12.9413   25.8220 H    0  0  0  0  0  0  0  0  0  0  0  0
    7.0298   13.7696   25.7629 H    0  0  0  0  0  0  0  0  0  0  0  0
    8.6791   15.8794   24.4187 H    0  0  0  0  0  0  0  0  0  0  0  0
    7.8421   15.8447   22.8853 H    0  0  0  0  0  0  0  0  0  0  0  0
    9.9379   17.2195   22.7828 H    0  0  0  0  0  0  0  0  0  0  0  0
   11.8162   16.8395   21.0041 H    0  0  0  0  0  0  0  0  0  0  0  0
   11.1720   16.2014   19.5150 H    0  0  0  0  0  0  0  0  0  0  0  0
   11.2815   16.0821   24.5094 H    0  0  0  0  0  0  0  0  0  0  0  0
   12.2126   16.1398   23.0454 H    0  0  0  0  0  0  0  0  0  0  0  0
   12.1502   13.8086   22.7619 H    0  0  0  0  0  0  0  0  0  0  0  0
   10.8357   13.8369   25.5900 H    0  0  0  0  0  0  0  0  0  0  0  0
   11.6836   12.4243   24.8023 H    0  0  0  0  0  0  0  0  0  0  0  0
    9.9769   12.5516   22.8037 H    0  0  0  0  0  0  0  0  0  0  0  0
 14 15  1  0  0  0  0
 13 14  2  0  0  0  0
  6 13  1  0  0  0  0
  5  6  2  0  0  0  0
  4  5  1  0  0  0  0
  3  4  2  0  0  0  0
  2  3  1  0  0  0  0
  1  2  1  0  0  0  0
 28  1  1  0  0  0  0
 29  1  1  0  0  0  0
 30  1  1  0  0  0  0
 31  4  1  0  0  0  0
 32  5  1  0  0  0  0
  7  6  1  0  0  0  0
  8  7  2  0  0  0  0
  9  8  1  0  0  0  0
 33  8  1  0  0  0  0
 10  9  2  0  0  0  0
 34  9  1  0  0  0  0
 11 10  1  0  0  0  0
 12 11  2  0  0  0  0
 35 11  1  0  0  0  0
 36 12  1  0  0  0  0
 37 13  1  0  0  0  0
 16 15  1  0  0  0  0
 38 15  1  0  0  0  0
 39 15  1  0  0  0  0
 17 16  2  0  0  0  0
 18 16  1  0  0  0  0
 19 18  1  0  0  0  0
 20 19  1  0  0  0  0
 40 19  1  0  0  0  0
 41 19  1  0  0  0  0
 21 20  1  0  0  0  0
 24 20  1  0  0  0  0
 42 20  1  0  0  0  0
 22 21  1  0  0  0  0
 23 21  2  0  0  0  0
 43 22  1  0  0  0  0
 44 22  1  0  0  0  0
 45 24  1  0  0  0  0
 46 24  1  0  0  0  0
 25 24  1  0  0  0  0
 26 25  1  0  0  0  0
 47 25  1  0  0  0  0
 48 26  1  0  0  0  0
 49 26  1  0  0  0  0
 27 26  1  0  0  0  0
 50 27  1  0  0  0  0
 12  7  1  0  0  0  0
 14  3  1  0  0  0  0
 27 18  1  0  0  0  0
 27 25  1  0  0  0  0
M  END
>  <FittedScore>
-27.11

$$$$
