A71EV2A-x7445a_lowest-energy
  FITTED

 50 53     0  0  0  0  0  0  0999 V2000
    7.2513   16.4660   27.8040 C    0  0  0  0  0  0  0  0  0  0  0  0
    8.1840   14.9347   27.5270 S    0  0  0  0  0  0  0  0  0  0  0  0
    8.9537   14.9223   25.9173 C    0  0  0  0  0  0  0  0  0  0  0  0
    9.8925   15.9231   25.6128 C    0  0  0  0  0  0  0  0  0  0  0  0
   10.3912   16.0534   24.3294 C    0  0  0  0  0  0  0  0  0  0  0  0
    9.9518   15.1902   23.2954 C    0  0  0  0  0  0  0  0  0  0  0  0
   10.3324   15.4409   21.8983 C    0  0  0  0  0  0  0  0  0  0  0  0
    9.4043   15.7204   20.8628 C    0  0  0  0  0  0  0  0  0  0  0  0
    9.8464   15.9395   19.5486 C    0  0  0  0  0  0  0  0  0  0  0  0
   11.1432   15.8987   19.2090 N    0  0  0  0  0  0  0  0  0  0  0  0
   12.0012   15.6377   20.1986 C    0  0  0  0  0  0  0  0  0  0  0  0
   11.6650   15.4016   21.5280 C    0  0  0  0  0  0  0  0  0  0  0  0
    9.1261   14.1043   23.6361 C    0  0  0  0  0  0  0  0  0  0  0  0
    8.6632   13.9108   24.9450 C    0  0  0  0  0  0  0  0  0  0  0  0
    7.9867   12.5675   25.2388 C    0  0  0  0  0  0  0  0  0  0  0  0
    6.4968   12.6080   24.8809 C    0  0  0  0  0  0  0  0  0  0  0  0
    6.2698   12.7084   23.6669 O    0  0  0  0  0  0  0  0  0  0  0  0
    5.4499   12.6907   25.8202 N    0  0  0  0  0  0  0  0  0  0  0  0
    5.6111   12.3431   27.2747 C    0  0  0  0  0  0  0  0  0  0  0  0
    4.5600   11.2920   27.8339 C    0  0  0  0  0  0  0  0  0  0  0  0
    4.8245    9.8472   27.4034 C    0  0  0  0  0  0  0  0  0  0  0  0
    5.4263    8.9983   28.2437 N    0  0  0  0  0  0  0  0  0  0  0  0
    4.3733    9.4655   26.3461 O    0  0  0  0  0  0  0  0  0  0  0  0
    3.0676   11.7395   27.5833 C    0  0  0  0  0  0  0  0  0  0  0  0
    2.9295   12.2541   26.1605 C    0  0  0  0  0  0  0  0  0  0  0  0
    2.8837   13.7634   26.0643 C    0  0  0  0  0  0  0  0  0  0  0  0
    4.0072   12.9974   25.4441 C    0  0  0  0  0  0  0  0  0  0  0  0
    6.4949   16.5795   27.0134 H    0  0  0  0  0  0  0  0  0  0  0  0
    7.9551   17.3130   27.7850 H    0  0  0  0  0  0  0  0  0  0  0  0
    6.7731   16.3854   28.7938 H    0  0  0  0  0  0  0  0  0  0  0  0
   10.2438   16.6313   26.3524 H    0  0  0  0  0  0  0  0  0  0  0  0
   11.0730   16.8713   24.1413 H    0  0  0  0  0  0  0  0  0  0  0  0
    8.3471   15.7976   21.0767 H    0  0  0  0  0  0  0  0  0  0  0  0
    9.1594   16.1597   18.7426 H    0  0  0  0  0  0  0  0  0  0  0  0
   13.0185   15.4698   19.9554 H    0  0  0  0  0  0  0  0  0  0  0  0
   12.4475   15.0894   22.2094 H    0  0  0  0  0  0  0  0  0  0  0  0
    8.8586   13.3777   22.8641 H    0  0  0  0  0  0  0  0  0  0  0  0
    8.2484   12.2515   26.2578 H    0  0  0  0  0  0  0  0  0  0  0  0
    8.4474   11.7689   24.6269 H    0  0  0  0  0  0  0  0  0  0  0  0
    5.5275   13.2812   27.8281 H    0  0  0  0  0  0  0  0  0  0  0  0
    6.6356   12.0263   27.5419 H    0  0  0  0  0  0  0  0  0  0  0  0
    4.7433   11.3168   28.9160 H    0  0  0  0  0  0  0  0  0  0  0  0
    5.7058    8.0755   27.8978 H    0  0  0  0  0  0  0  0  0  0  0  0
    5.6238    9.3091   29.1876 H    0  0  0  0  0  0  0  0  0  0  0  0
    2.8176   12.4929   28.3376 H    0  0  0  0  0  0  0  0  0  0  0  0
    2.3329   10.9301   27.7224 H    0  0  0  0  0  0  0  0  0  0  0  0
    2.3194   11.6440   25.5263 H    0  0  0  0  0  0  0  0  0  0  0  0
    3.1646   14.4097   26.9087 H    0  0  0  0  0  0  0  0  0  0  0  0
    2.1805   14.1610   25.3591 H    0  0  0  0  0  0  0  0  0  0  0  0
    4.0634   13.0749   24.4030 H    0  0  0  0  0  0  0  0  0  0  0  0
 14 15  1  0  0  0  0
 13 14  2  0  0  0  0
  6 13  1  0  0  0  0
  5  6  2  0  0  0  0
  4  5  1  0  0  0  0
  3  4  2  0  0  0  0
  2  3  1  0  0  0  0
  1  2  1  0  0  0  0
 28  1  1  0  0  0  0
 29  1  1  0  0  0  0
 30  1  1  0  0  0  0
 31  4  1  0  0  0  0
 32  5  1  0  0  0  0
  7  6  1  0  0  0  0
  8  7  2  0  0  0  0
  9  8  1  0  0  0  0
 33  8  1  0  0  0  0
 10  9  2  0  0  0  0
 34  9  1  0  0  0  0
 11 10  1  0  0  0  0
 12 11  2  0  0  0  0
 35 11  1  0  0  0  0
 36 12  1  0  0  0  0
 37 13  1  0  0  0  0
 16 15  1  0  0  0  0
 38 15  1  0  0  0  0
 39 15  1  0  0  0  0
 17 16  2  0  0  0  0
 18 16  1  0  0  0  0
 19 18  1  0  0  0  0
 20 19  1  0  0  0  0
 40 19  1  0  0  0  0
 41 19  1  0  0  0  0
 21 20  1  0  0  0  0
 24 20  1  0  0  0  0
 42 20  1  0  0  0  0
 22 21  1  0  0  0  0
 23 21  2  0  0  0  0
 43 22  1  0  0  0  0
 44 22  1  0  0  0  0
 45 24  1  0  0  0  0
 46 24  1  0  0  0  0
 25 24  1  0  0  0  0
 26 25  1  0  0  0  0
 47 25  1  0  0  0  0
 48 26  1  0  0  0  0
 49 26  1  0  0  0  0
 27 26  1  0  0  0  0
 50 27  1  0  0  0  0
 12  7  1  0  0  0  0
 14  3  1  0  0  0  0
 27 18  1  0  0  0  0
 27 25  1  0  0  0  0
M  END
>  <FittedScore>
-28.27

$$$$
