A71EV2A-x7501b_best-RMSD
  FITTED

 53 55     0  0  0  0  0  0  0999 V2000
    9.8478   16.7550   19.3704 O    0  0  0  0  0  0  0  0  0  0  0  0
   10.3286   15.6946   19.7208 C    0  0  0  0  0  0  0  0  0  0  0  0
   10.8174   14.8232   18.8185 N    0  0  0  0  0  0  0  0  0  0  0  0
   10.3113   15.2226   21.1626 C    0  0  0  0  0  0  0  0  0  0  0  0
   11.3003   16.0642   22.0227 C    0  0  0  0  0  0  0  0  0  0  0  0
   11.2062   15.6582   23.5160 C    0  0  0  0  0  0  0  0  0  0  0  0
    9.7357   15.6619   24.0142 C    0  0  0  0  0  0  0  0  0  0  0  0
    8.8663   15.2422   21.7582 C    0  0  0  0  0  0  0  0  0  0  0  0
    8.8451   14.7801   23.1803 N    0  0  0  0  0  0  0  0  0  0  0  0
    8.1610   13.6532   23.5972 C    0  0  0  0  0  0  0  0  0  0  0  0
    7.4266   13.0371   22.8395 O    0  0  0  0  0  0  0  0  0  0  0  0
    8.4345   13.1133   25.0115 C    0  0  0  0  0  0  0  0  0  0  0  0
    7.6784   11.8134   25.3754 C    0  0  0  0  0  0  0  0  0  0  0  0
    8.1133   10.5511   24.8870 C    0  0  0  0  0  0  0  0  0  0  0  0
    9.4989   10.4093   23.7848 S    0  0  0  0  0  0  0  0  0  0  0  0
    9.6147    8.6530   23.3296 C    0  0  0  0  0  0  0  0  0  0  0  0
    6.5107   11.8018   26.1870 C    0  0  0  0  0  0  0  0  0  0  0  0
    5.8769   10.6410   26.4884 N    0  0  0  0  0  0  0  0  0  0  0  0
    6.3814    9.4815   26.0130 C    0  0  0  0  0  0  0  0  0  0  0  0
    7.4674    9.3982   25.2166 N    0  0  0  0  0  0  0  0  0  0  0  0
    5.9217   12.9186   26.7249 N    0  0  0  0  0  0  0  0  0  0  0  0
    6.4493   13.5695   27.9325 C    0  0  0  0  0  0  0  0  0  0  0  0
    5.7756   12.9899   29.2033 C    0  0  0  0  0  0  0  0  0  0  0  0
    6.1617   15.0720   27.7183 C    0  0  0  0  0  0  0  0  0  0  0  0
    5.0974   15.1606   26.6088 C    0  0  0  0  0  0  0  0  0  0  0  0
    5.0409   13.7813   25.9354 C    0  0  0  0  0  0  0  0  0  0  0  0
   10.8002   15.0706   17.8374 H    0  0  0  0  0  0  0  0  0  0  0  0
   11.0442   13.8656   19.0953 H    0  0  0  0  0  0  0  0  0  0  0  0
   10.6566   14.1824   21.1981 H    0  0  0  0  0  0  0  0  0  0  0  0
   12.3222   15.9091   21.6669 H    0  0  0  0  0  0  0  0  0  0  0  0
   11.0872   17.1353   21.9223 H    0  0  0  0  0  0  0  0  0  0  0  0
   11.6467   14.6666   23.6587 H    0  0  0  0  0  0  0  0  0  0  0  0
   11.7970   16.3568   24.1145 H    0  0  0  0  0  0  0  0  0  0  0  0
    9.7403   15.4150   25.0746 H    0  0  0  0  0  0  0  0  0  0  0  0
    9.3499   16.6870   23.9824 H    0  0  0  0  0  0  0  0  0  0  0  0
    8.2263   14.6418   21.1077 H    0  0  0  0  0  0  0  0  0  0  0  0
    8.4418   16.2506   21.7133 H    0  0  0  0  0  0  0  0  0  0  0  0
    9.5084   12.9477   25.1401 H    0  0  0  0  0  0  0  0  0  0  0  0
    8.2010   13.8972   25.7265 H    0  0  0  0  0  0  0  0  0  0  0  0
   10.4624    8.5017   22.6601 H    0  0  0  0  0  0  0  0  0  0  0  0
    8.6992    8.3470   22.8162 H    0  0  0  0  0  0  0  0  0  0  0  0
    9.7689    8.0396   24.2191 H    0  0  0  0  0  0  0  0  0  0  0  0
    5.8806    8.5561   26.2759 H    0  0  0  0  0  0  0  0  0  0  0  0
    7.5302   13.4245   28.0276 H    0  0  0  0  0  0  0  0  0  0  0  0
    4.6855   13.0599   29.1525 H    0  0  0  0  0  0  0  0  0  0  0  0
    6.1049   13.5235   30.0994 H    0  0  0  0  0  0  0  0  0  0  0  0
    6.0370   11.9367   29.3370 H    0  0  0  0  0  0  0  0  0  0  0  0
    5.8204   15.5696   28.6315 H    0  0  0  0  0  0  0  0  0  0  0  0
    7.0746   15.5789   27.3919 H    0  0  0  0  0  0  0  0  0  0  0  0
    4.1239   15.4161   27.0368 H    0  0  0  0  0  0  0  0  0  0  0  0
    5.3573   15.9338   25.8814 H    0  0  0  0  0  0  0  0  0  0  0  0
    4.0182   13.3981   25.9370 H    0  0  0  0  0  0  0  0  0  0  0  0
    5.3587   13.8625   24.8920 H    0  0  0  0  0  0  0  0  0  0  0  0
  9 10  1  0  0  0  0
  7  9  1  0  0  0  0
  6  7  1  0  0  0  0
  5  6  1  0  0  0  0
  4  5  1  0  0  0  0
  2  4  1  0  0  0  0
  1  2  2  0  0  0  0
  3  2  1  0  0  0  0
 27  3  1  0  0  0  0
 28  3  1  0  0  0  0
 29  4  1  0  0  0  0
 30  5  1  0  0  0  0
 31  5  1  0  0  0  0
 32  6  1  0  0  0  0
 33  6  1  0  0  0  0
 34  7  1  0  0  0  0
 35  7  1  0  0  0  0
  8  4  1  0  0  0  0
 36  8  1  0  0  0  0
 37  8  1  0  0  0  0
 11 10  2  0  0  0  0
 12 10  1  0  0  0  0
 38 12  1  0  0  0  0
 39 12  1  0  0  0  0
 13 12  1  0  0  0  0
 14 13  1  0  0  0  0
 20 14  2  0  0  0  0
 15 14  1  0  0  0  0
 16 15  1  0  0  0  0
 40 16  1  0  0  0  0
 41 16  1  0  0  0  0
 42 16  1  0  0  0  0
 17 13  2  0  0  0  0
 18 17  1  0  0  0  0
 19 18  2  0  0  0  0
 43 19  1  0  0  0  0
 21 17  1  0  0  0  0
 26 21  1  0  0  0  0
 22 21  1  0  0  0  0
 23 22  1  0  0  0  0
 44 22  1  0  0  0  0
 45 23  1  0  0  0  0
 46 23  1  0  0  0  0
 47 23  1  0  0  0  0
 24 22  1  0  0  0  0
 48 24  1  0  0  0  0
 49 24  1  0  0  0  0
 25 24  1  0  0  0  0
 50 25  1  0  0  0  0
 51 25  1  0  0  0  0
 52 26  1  0  0  0  0
 53 26  1  0  0  0  0
  9  8  1  0  0  0  0
 20 19  1  0  0  0  0
 26 25  1  0  0  0  0
M  END
>  <FittedScore>
-37.97

$$$$
