A71EV2A-x3485a_lowest-energy
  FITTED

 39 40     0  0  0  0  0  0  0999 V2000
   10.0285   16.9260   19.0462 O    0  0  0  0  0  0  0  0  0  0  0  0
   10.4702   15.8965   19.5213 C    0  0  0  0  0  0  0  0  0  0  0  0
   10.8425   14.8931   18.7045 N    0  0  0  0  0  0  0  0  0  0  0  0
   10.4205   15.5409   21.0120 C    0  0  0  0  0  0  0  0  0  0  0  0
   11.4049   16.3911   21.8650 C    0  0  0  0  0  0  0  0  0  0  0  0
   11.3372   15.9695   23.3642 C    0  0  0  0  0  0  0  0  0  0  0  0
    9.8799   15.8613   23.9168 C    0  0  0  0  0  0  0  0  0  0  0  0
    8.9900   15.6461   21.6201 C    0  0  0  0  0  0  0  0  0  0  0  0
    8.9460   15.0941   23.0169 N    0  0  0  0  0  0  0  0  0  0  0  0
    8.2208   13.9649   23.3342 C    0  0  0  0  0  0  0  0  0  0  0  0
    7.5948   13.3422   22.4923 O    0  0  0  0  0  0  0  0  0  0  0  0
    8.1277   13.5905   24.6468 N    0  0  0  0  0  0  0  0  0  0  0  0
    7.6535   12.3211   25.1215 C    0  0  0  0  0  0  0  0  0  0  0  0
    6.6814   12.2441   26.1324 C    0  0  0  0  0  0  0  0  0  0  0  0
    6.1839   10.9908   26.5306 C    0  0  0  0  0  0  0  0  0  0  0  0
    6.6619    9.8187   25.9261 C    0  0  0  0  0  0  0  0  0  0  0  0
    8.1562   11.1413   24.5498 C    0  0  0  0  0  0  0  0  0  0  0  0
    7.6594    9.8852   24.9415 C    0  0  0  0  0  0  0  0  0  0  0  0
    8.1102    8.6963   24.3910 O    0  0  0  0  0  0  0  0  0  0  0  0
    9.2539    8.5973   23.4996 C    0  0  0  0  0  0  0  0  0  0  0  0
   10.9762   13.9526   19.0744 H    0  0  0  0  0  0  0  0  0  0  0  0
   10.8088   15.0229   17.6985 H    0  0  0  0  0  0  0  0  0  0  0  0
   10.7305   14.4945   21.1306 H    0  0  0  0  0  0  0  0  0  0  0  0
   12.4247   16.2558   21.4951 H    0  0  0  0  0  0  0  0  0  0  0  0
   11.1700   17.4558   21.7685 H    0  0  0  0  0  0  0  0  0  0  0  0
   11.8418   15.0073   23.4867 H    0  0  0  0  0  0  0  0  0  0  0  0
   11.8980   16.6891   23.9657 H    0  0  0  0  0  0  0  0  0  0  0  0
    9.9465   15.4297   24.9172 H    0  0  0  0  0  0  0  0  0  0  0  0
    9.4751   16.8673   24.0637 H    0  0  0  0  0  0  0  0  0  0  0  0
    8.2838   15.1637   20.9399 H    0  0  0  0  0  0  0  0  0  0  0  0
    8.6624   16.6901   21.6404 H    0  0  0  0  0  0  0  0  0  0  0  0
    8.3204   14.2614   25.3887 H    0  0  0  0  0  0  0  0  0  0  0  0
    6.2957   13.1501   26.5934 H    0  0  0  0  0  0  0  0  0  0  0  0
    5.4280   10.9299   27.3089 H    0  0  0  0  0  0  0  0  0  0  0  0
    6.2653    8.8535   26.2332 H    0  0  0  0  0  0  0  0  0  0  0  0
    8.9249   11.2251   23.7848 H    0  0  0  0  0  0  0  0  0  0  0  0
   10.1491    9.0292   23.9580 H    0  0  0  0  0  0  0  0  0  0  0  0
    9.0440    9.1046   22.5544 H    0  0  0  0  0  0  0  0  0  0  0  0
    9.4533    7.5479   23.2834 H    0  0  0  0  0  0  0  0  0  0  0  0
  9 10  1  0  0  0  0
  7  9  1  0  0  0  0
  6  7  1  0  0  0  0
  5  6  1  0  0  0  0
  4  5  1  0  0  0  0
  2  4  1  0  0  0  0
  1  2  2  0  0  0  0
  3  2  1  0  0  0  0
 21  3  1  0  0  0  0
 22  3  1  0  0  0  0
 23  4  1  0  0  0  0
 24  5  1  0  0  0  0
 25  5  1  0  0  0  0
 26  6  1  0  0  0  0
 27  6  1  0  0  0  0
 28  7  1  0  0  0  0
 29  7  1  0  0  0  0
  8  4  1  0  0  0  0
 30  8  1  0  0  0  0
 31  8  1  0  0  0  0
 11 10  2  0  0  0  0
 12 10  1  0  0  0  0
 32 12  1  0  0  0  0
 13 12  1  0  0  0  0
 14 13  1  0  0  0  0
 33 14  1  0  0  0  0
 15 14  2  0  0  0  0
 34 15  1  0  0  0  0
 16 15  1  0  0  0  0
 35 16  1  0  0  0  0
 17 13  2  0  0  0  0
 36 17  1  0  0  0  0
 18 16  2  0  0  0  0
 19 18  1  0  0  0  0
 20 19  1  0  0  0  0
 37 20  1  0  0  0  0
 38 20  1  0  0  0  0
 39 20  1  0  0  0  0
  9  8  1  0  0  0  0
 18 17  1  0  0  0  0
M  END
>  <FittedScore>
-36.22

$$$$
