A71EV2A-x3485a_best-RMSD
  FITTED

 39 40     0  0  0  0  0  0  0999 V2000
    9.9064   16.9419   19.0850 O    0  0  0  0  0  0  0  0  0  0  0  0
   10.4016   15.9344   19.5554 C    0  0  0  0  0  0  0  0  0  0  0  0
   10.8338   14.9543   18.7365 N    0  0  0  0  0  0  0  0  0  0  0  0
   10.3695   15.5676   21.0435 C    0  0  0  0  0  0  0  0  0  0  0  0
   11.3989   16.3805   21.8781 C    0  0  0  0  0  0  0  0  0  0  0  0
   11.3531   15.9470   23.3752 C    0  0  0  0  0  0  0  0  0  0  0  0
    9.9041   15.8597   23.9542 C    0  0  0  0  0  0  0  0  0  0  0  0
    8.9545   15.6948   21.6854 C    0  0  0  0  0  0  0  0  0  0  0  0
    8.9473   15.1069   23.0650 N    0  0  0  0  0  0  0  0  0  0  0  0
    8.2421   13.9614   23.3705 C    0  0  0  0  0  0  0  0  0  0  0  0
    7.6010   13.3536   22.5267 O    0  0  0  0  0  0  0  0  0  0  0  0
    8.1867   13.5517   24.6717 N    0  0  0  0  0  0  0  0  0  0  0  0
    7.6930   12.2816   25.1247 C    0  0  0  0  0  0  0  0  0  0  0  0
    6.7198   12.1986   26.1324 C    0  0  0  0  0  0  0  0  0  0  0  0
    6.1961   10.9470   26.5007 C    0  0  0  0  0  0  0  0  0  0  0  0
    6.6593    9.7815   25.8737 C    0  0  0  0  0  0  0  0  0  0  0  0
    8.1787   11.1108   24.5254 C    0  0  0  0  0  0  0  0  0  0  0  0
    7.6619    9.8536   24.8941 C    0  0  0  0  0  0  0  0  0  0  0  0
    8.1022    8.6678   24.3356 O    0  0  0  0  0  0  0  0  0  0  0  0
    9.2620    8.5457   23.4766 C    0  0  0  0  0  0  0  0  0  0  0  0
   11.0025   14.0160   19.0990 H    0  0  0  0  0  0  0  0  0  0  0  0
   10.7910   15.0963   17.7312 H    0  0  0  0  0  0  0  0  0  0  0  0
   10.6548   14.5130   21.1265 H    0  0  0  0  0  0  0  0  0  0  0  0
   12.4050   16.2181   21.4794 H    0  0  0  0  0  0  0  0  0  0  0  0
   11.1964   17.4533   21.7947 H    0  0  0  0  0  0  0  0  0  0  0  0
   11.8431   14.9750   23.4771 H    0  0  0  0  0  0  0  0  0  0  0  0
   11.9384   16.6491   23.9709 H    0  0  0  0  0  0  0  0  0  0  0  0
    9.9787   15.4286   24.9541 H    0  0  0  0  0  0  0  0  0  0  0  0
    9.5222   16.8727   24.1132 H    0  0  0  0  0  0  0  0  0  0  0  0
    8.2147   15.2478   21.0168 H    0  0  0  0  0  0  0  0  0  0  0  0
    8.6590   16.7477   21.7361 H    0  0  0  0  0  0  0  0  0  0  0  0
    8.4306   14.1871   25.4282 H    0  0  0  0  0  0  0  0  0  0  0  0
    6.3504   13.0988   26.6148 H    0  0  0  0  0  0  0  0  0  0  0  0
    5.4306   10.8791   27.2669 H    0  0  0  0  0  0  0  0  0  0  0  0
    6.2440    8.8145   26.1532 H    0  0  0  0  0  0  0  0  0  0  0  0
    8.9467   11.1934   23.7587 H    0  0  0  0  0  0  0  0  0  0  0  0
    9.4077    7.4951   23.2254 H    0  0  0  0  0  0  0  0  0  0  0  0
   10.1594    8.9124   23.9766 H    0  0  0  0  0  0  0  0  0  0  0  0
    9.1111    9.0945   22.5405 H    0  0  0  0  0  0  0  0  0  0  0  0
  9 10  1  0  0  0  0
  7  9  1  0  0  0  0
  6  7  1  0  0  0  0
  5  6  1  0  0  0  0
  4  5  1  0  0  0  0
  2  4  1  0  0  0  0
  1  2  2  0  0  0  0
  3  2  1  0  0  0  0
 21  3  1  0  0  0  0
 22  3  1  0  0  0  0
 23  4  1  0  0  0  0
 24  5  1  0  0  0  0
 25  5  1  0  0  0  0
 26  6  1  0  0  0  0
 27  6  1  0  0  0  0
 28  7  1  0  0  0  0
 29  7  1  0  0  0  0
  8  4  1  0  0  0  0
 30  8  1  0  0  0  0
 31  8  1  0  0  0  0
 11 10  2  0  0  0  0
 12 10  1  0  0  0  0
 32 12  1  0  0  0  0
 13 12  1  0  0  0  0
 14 13  1  0  0  0  0
 33 14  1  0  0  0  0
 15 14  2  0  0  0  0
 34 15  1  0  0  0  0
 16 15  1  0  0  0  0
 35 16  1  0  0  0  0
 17 13  2  0  0  0  0
 36 17  1  0  0  0  0
 18 16  2  0  0  0  0
 19 18  1  0  0  0  0
 20 19  1  0  0  0  0
 37 20  1  0  0  0  0
 38 20  1  0  0  0  0
 39 20  1  0  0  0  0
  9  8  1  0  0  0  0
 18 17  1  0  0  0  0
M  END
>  <FittedScore>
-35.89

$$$$
