A71EV2A-x4333a_best-RMSD
  FITTED

 38 39     0  0  0  0  0  0  0999 V2000
    9.8162   16.6307   19.4439 O    0  0  0  0  0  0  0  0  0  0  0  0
   10.3400   15.5801   19.7754 C    0  0  0  0  0  0  0  0  0  0  0  0
   10.7978   14.7072   18.8570 N    0  0  0  0  0  0  0  0  0  0  0  0
   10.4451   15.0780   21.2136 C    0  0  0  0  0  0  0  0  0  0  0  0
   11.5036   15.8897   22.0153 C    0  0  0  0  0  0  0  0  0  0  0  0
   11.5929   15.3525   23.4661 C    0  0  0  0  0  0  0  0  0  0  0  0
   10.1936   15.2599   24.1336 C    0  0  0  0  0  0  0  0  0  0  0  0
    9.0682   15.0384   21.9469 C    0  0  0  0  0  0  0  0  0  0  0  0
    9.1807   14.4784   23.3337 N    0  0  0  0  0  0  0  0  0  0  0  0
    8.3857   13.4488   23.7926 C    0  0  0  0  0  0  0  0  0  0  0  0
    7.4679   12.9946   23.1225 O    0  0  0  0  0  0  0  0  0  0  0  0
    8.6873   12.8559   25.1756 C    0  0  0  0  0  0  0  0  0  0  0  0
    7.8635   11.6192   25.5327 C    0  0  0  0  0  0  0  0  0  0  0  0
    8.1329   10.3322   24.9974 C    0  0  0  0  0  0  0  0  0  0  0  0
    9.2745   10.0652   24.0099 C    0  0  0  0  0  0  0  0  0  0  0  0
    6.7640   11.7768   26.4039 C    0  0  0  0  0  0  0  0  0  0  0  0
    5.9812   10.6671   26.7330 C    0  0  0  0  0  0  0  0  0  0  0  0
    6.3143    9.4252   26.1875 C    0  0  0  0  0  0  0  0  0  0  0  0
    7.3650    9.2621   25.3398 N    0  0  0  0  0  0  0  0  0  0  0  0
   10.7852   14.9565   17.8768 H    0  0  0  0  0  0  0  0  0  0  0  0
   11.0440   13.7544   19.1315 H    0  0  0  0  0  0  0  0  0  0  0  0
   10.8024   14.0398   21.2077 H    0  0  0  0  0  0  0  0  0  0  0  0
   12.4833   15.8030   21.5344 H    0  0  0  0  0  0  0  0  0  0  0  0
   11.2449   16.9541   22.0257 H    0  0  0  0  0  0  0  0  0  0  0  0
   12.0692   14.3677   23.4621 H    0  0  0  0  0  0  0  0  0  0  0  0
   12.2359   16.0109   24.0565 H    0  0  0  0  0  0  0  0  0  0  0  0
   10.3542   14.8770   25.1398 H    0  0  0  0  0  0  0  0  0  0  0  0
    9.8055   16.2721   24.2866 H    0  0  0  0  0  0  0  0  0  0  0  0
    8.3823   14.4639   21.3186 H    0  0  0  0  0  0  0  0  0  0  0  0
    8.6370   16.0433   22.0019 H    0  0  0  0  0  0  0  0  0  0  0  0
    9.7491   12.5986   25.2606 H    0  0  0  0  0  0  0  0  0  0  0  0
    8.5127   13.6238   25.9356 H    0  0  0  0  0  0  0  0  0  0  0  0
    9.3064    9.0268   23.6689 H    0  0  0  0  0  0  0  0  0  0  0  0
   10.2376   10.2868   24.4746 H    0  0  0  0  0  0  0  0  0  0  0  0
    9.1700   10.6830   23.1175 H    0  0  0  0  0  0  0  0  0  0  0  0
    6.5145   12.7503   26.8188 H    0  0  0  0  0  0  0  0  0  0  0  0
    5.1271   10.7701   27.3946 H    0  0  0  0  0  0  0  0  0  0  0  0
    5.7157    8.5562   26.4486 H    0  0  0  0  0  0  0  0  0  0  0  0
  9 10  1  0  0  0  0
  7  9  1  0  0  0  0
  6  7  1  0  0  0  0
  5  6  1  0  0  0  0
  4  5  1  0  0  0  0
  2  4  1  0  0  0  0
  1  2  2  0  0  0  0
  3  2  1  0  0  0  0
 20  3  1  0  0  0  0
 21  3  1  0  0  0  0
 22  4  1  0  0  0  0
 23  5  1  0  0  0  0
 24  5  1  0  0  0  0
 25  6  1  0  0  0  0
 26  6  1  0  0  0  0
 27  7  1  0  0  0  0
 28  7  1  0  0  0  0
  8  4  1  0  0  0  0
 29  8  1  0  0  0  0
 30  8  1  0  0  0  0
 11 10  2  0  0  0  0
 12 10  1  0  0  0  0
 31 12  1  0  0  0  0
 32 12  1  0  0  0  0
 13 12  1  0  0  0  0
 14 13  1  0  0  0  0
 19 14  2  0  0  0  0
 15 14  1  0  0  0  0
 33 15  1  0  0  0  0
 34 15  1  0  0  0  0
 35 15  1  0  0  0  0
 16 13  2  0  0  0  0
 36 16  1  0  0  0  0
 17 16  1  0  0  0  0
 37 17  1  0  0  0  0
 18 17  2  0  0  0  0
 38 18  1  0  0  0  0
  9  8  1  0  0  0  0
 19 18  1  0  0  0  0
M  END
>  <FittedScore>
-31.96

$$$$
