A71EV2A-x4333a_lowest-energy
  FITTED

 38 39     0  0  0  0  0  0  0999 V2000
    9.6553   16.6051   19.3373 O    0  0  0  0  0  0  0  0  0  0  0  0
   10.2606   15.6085   19.6917 C    0  0  0  0  0  0  0  0  0  0  0  0
   10.8250   14.7625   18.8112 N    0  0  0  0  0  0  0  0  0  0  0  0
   10.3487   15.1538   21.1321 C    0  0  0  0  0  0  0  0  0  0  0  0
   11.3802   16.0214   21.9061 C    0  0  0  0  0  0  0  0  0  0  0  0
   11.4843   15.5046   23.3589 C    0  0  0  0  0  0  0  0  0  0  0  0
   10.0819   15.4182   24.0257 C    0  0  0  0  0  0  0  0  0  0  0  0
    8.9611   15.1400   21.8426 C    0  0  0  0  0  0  0  0  0  0  0  0
    9.0728   14.6155   23.2380 N    0  0  0  0  0  0  0  0  0  0  0  0
    8.3418   13.5346   23.6929 C    0  0  0  0  0  0  0  0  0  0  0  0
    7.4906   12.9979   23.0007 O    0  0  0  0  0  0  0  0  0  0  0  0
    8.6484   12.9846   25.0923 C    0  0  0  0  0  0  0  0  0  0  0  0
    7.8865   11.7101   25.4553 C    0  0  0  0  0  0  0  0  0  0  0  0
    8.2287   10.4305   24.9350 C    0  0  0  0  0  0  0  0  0  0  0  0
    9.3934   10.2149   23.9638 C    0  0  0  0  0  0  0  0  0  0  0  0
    6.7708   11.8176   26.3099 C    0  0  0  0  0  0  0  0  0  0  0  0
    6.0476   10.6711   26.6494 C    0  0  0  0  0  0  0  0  0  0  0  0
    6.4489    9.4414   26.1147 C    0  0  0  0  0  0  0  0  0  0  0  0
    7.5087    9.3242   25.2690 N    0  0  0  0  0  0  0  0  0  0  0  0
   11.1233   13.8352   19.1159 H    0  0  0  0  0  0  0  0  0  0  0  0
   10.8724   15.0105   17.8325 H    0  0  0  0  0  0  0  0  0  0  0  0
   10.7122   14.1174   21.1616 H    0  0  0  0  0  0  0  0  0  0  0  0
   12.3592   15.9655   21.4214 H    0  0  0  0  0  0  0  0  0  0  0  0
   11.0818   17.0760   21.9019 H    0  0  0  0  0  0  0  0  0  0  0  0
   11.9624   14.5200   23.3591 H    0  0  0  0  0  0  0  0  0  0  0  0
   12.1299   16.1700   23.9361 H    0  0  0  0  0  0  0  0  0  0  0  0
   10.2448   15.0543   25.0371 H    0  0  0  0  0  0  0  0  0  0  0  0
    9.6880   16.4305   24.1592 H    0  0  0  0  0  0  0  0  0  0  0  0
    8.2768   14.5568   21.2197 H    0  0  0  0  0  0  0  0  0  0  0  0
    8.5297   16.1464   21.8743 H    0  0  0  0  0  0  0  0  0  0  0  0
    9.7181   12.7843   25.1919 H    0  0  0  0  0  0  0  0  0  0  0  0
    8.4219   13.7644   25.8258 H    0  0  0  0  0  0  0  0  0  0  0  0
    9.5373    9.1615   23.7088 H    0  0  0  0  0  0  0  0  0  0  0  0
   10.3335   10.5600   24.4010 H    0  0  0  0  0  0  0  0  0  0  0  0
    9.2244   10.7542   23.0296 H    0  0  0  0  0  0  0  0  0  0  0  0
    6.4573   12.7819   26.7051 H    0  0  0  0  0  0  0  0  0  0  0  0
    5.1870   10.7355   27.3085 H    0  0  0  0  0  0  0  0  0  0  0  0
    5.8965    8.5458   26.3861 H    0  0  0  0  0  0  0  0  0  0  0  0
  9 10  1  0  0  0  0
  7  9  1  0  0  0  0
  6  7  1  0  0  0  0
  5  6  1  0  0  0  0
  4  5  1  0  0  0  0
  2  4  1  0  0  0  0
  1  2  2  0  0  0  0
  3  2  1  0  0  0  0
 20  3  1  0  0  0  0
 21  3  1  0  0  0  0
 22  4  1  0  0  0  0
 23  5  1  0  0  0  0
 24  5  1  0  0  0  0
 25  6  1  0  0  0  0
 26  6  1  0  0  0  0
 27  7  1  0  0  0  0
 28  7  1  0  0  0  0
  8  4  1  0  0  0  0
 29  8  1  0  0  0  0
 30  8  1  0  0  0  0
 11 10  2  0  0  0  0
 12 10  1  0  0  0  0
 31 12  1  0  0  0  0
 32 12  1  0  0  0  0
 13 12  1  0  0  0  0
 14 13  1  0  0  0  0
 19 14  2  0  0  0  0
 15 14  1  0  0  0  0
 33 15  1  0  0  0  0
 34 15  1  0  0  0  0
 35 15  1  0  0  0  0
 16 13  2  0  0  0  0
 36 16  1  0  0  0  0
 17 16  1  0  0  0  0
 37 17  1  0  0  0  0
 18 17  2  0  0  0  0
 38 18  1  0  0  0  0
  9  8  1  0  0  0  0
 19 18  1  0  0  0  0
M  END
>  <FittedScore>
-33.51

$$$$
