A71EV2A-x2339a_best-RMSD
  FITTED

 29 31     0  0  0  0  0  0  0999 V2000
    5.3520   12.2774   27.0018 F    0  0  0  0  0  0  0  0  0  0  0  0
    6.2630   11.6833   26.1995 C    0  0  0  0  0  0  0  0  0  0  0  0
    7.1439   12.4709   25.4323 C    0  0  0  0  0  0  0  0  0  0  0  0
    6.3153   10.2727   26.1424 C    0  0  0  0  0  0  0  0  0  0  0  0
    7.2426    9.6407   25.3017 C    0  0  0  0  0  0  0  0  0  0  0  0
    8.1265   10.4423   24.5661 C    0  0  0  0  0  0  0  0  0  0  0  0
    9.1218   10.0851   23.7173 N    0  0  0  0  0  0  0  0  0  0  0  0
    9.4199    8.7208   23.2719 C    0  0  0  0  0  0  0  0  0  0  0  0
    8.0774   11.8216   24.6058 C    0  0  0  0  0  0  0  0  0  0  0  0
    9.0308   12.2979   23.7056 C    0  0  0  0  0  0  0  0  0  0  0  0
    9.7374   11.1301   23.0955 N    0  0  0  0  0  0  0  0  0  0  0  0
    9.3381   13.7375   23.3471 C    0  0  0  0  0  0  0  0  0  0  0  0
    8.7865   14.6990   23.8543 O    0  0  0  0  0  0  0  0  0  0  0  0
   10.2486   13.8515   22.3341 N    0  0  0  0  0  0  0  0  0  0  0  0
   10.5789   15.1974   21.7759 C    0  0  0  0  0  0  0  0  0  0  0  0
   11.0869   15.3956   20.3815 C    0  0  0  0  0  0  0  0  0  0  0  0
    9.7350   15.9371   20.7764 C    0  0  0  0  0  0  0  0  0  0  0  0
    7.0863   13.5550   25.4704 H    0  0  0  0  0  0  0  0  0  0  0  0
    5.6470    9.6714   26.7536 H    0  0  0  0  0  0  0  0  0  0  0  0
    7.2794    8.5587   25.2462 H    0  0  0  0  0  0  0  0  0  0  0  0
   10.2085    8.6742   22.5163 H    0  0  0  0  0  0  0  0  0  0  0  0
    8.5356    8.2521   22.8414 H    0  0  0  0  0  0  0  0  0  0  0  0
    9.7409    8.1042   24.1119 H    0  0  0  0  0  0  0  0  0  0  0  0
   10.5573   13.0243   21.8236 H    0  0  0  0  0  0  0  0  0  0  0  0
   11.0589   15.6524   22.6412 H    0  0  0  0  0  0  0  0  0  0  0  0
   11.8979   16.1037   20.2483 H    0  0  0  0  0  0  0  0  0  0  0  0
   11.1094   14.5421   19.7080 H    0  0  0  0  0  0  0  0  0  0  0  0
    9.6348   17.0127   20.9040 H    0  0  0  0  0  0  0  0  0  0  0  0
    8.8544   15.4477   20.3672 H    0  0  0  0  0  0  0  0  0  0  0  0
  9 10  1  0  0  0  0
  3  9  1  0  0  0  0
  2  3  2  0  0  0  0
  1  2  1  0  0  0  0
 18  3  1  0  0  0  0
  4  2  1  0  0  0  0
 19  4  1  0  0  0  0
  5  4  2  0  0  0  0
 20  5  1  0  0  0  0
  6  5  1  0  0  0  0
  7  6  1  0  0  0  0
 11  7  1  0  0  0  0
  8  7  1  0  0  0  0
 21  8  1  0  0  0  0
 22  8  1  0  0  0  0
 23  8  1  0  0  0  0
 12 10  1  0  0  0  0
 13 12  2  0  0  0  0
 14 12  1  0  0  0  0
 24 14  1  0  0  0  0
 15 14  1  0  0  0  0
 17 15  1  0  0  0  0
 25 15  1  0  0  0  0
 16 15  1  0  0  0  0
 26 16  1  0  0  0  0
 27 16  1  0  0  0  0
 28 17  1  0  0  0  0
 29 17  1  0  0  0  0
  9  6  2  0  0  0  0
 11 10  2  0  0  0  0
 17 16  1  0  0  0  0
M  END
>  <FittedScore>
-23.51

$$$$
