A71EV2A-x7448a_lowest-energy
  FITTED

 45 48     0  0  0  0  0  0  0999 V2000
    4.1671   13.7410   25.5017 C    0  0  0  0  0  0  0  0  0  0  0  0
    5.9745   13.5901   25.3664 S    0  0  0  0  0  0  0  0  0  0  0  0
    6.3770   11.8659   25.4751 C    0  0  0  0  0  0  0  0  0  0  0  0
    5.7178   11.0440   26.4171 C    0  0  0  0  0  0  0  0  0  0  0  0
    5.9600    9.6664   26.4411 C    0  0  0  0  0  0  0  0  0  0  0  0
    6.9137    9.1202   25.5751 C    0  0  0  0  0  0  0  0  0  0  0  0
    7.6676    9.9419   24.7518 C    0  0  0  0  0  0  0  0  0  0  0  0
    7.3958   11.2948   24.6820 C    0  0  0  0  0  0  0  0  0  0  0  0
    8.3716   11.9891   23.7423 C    0  0  0  0  0  0  0  0  0  0  0  0
    9.1113   13.1492   24.4192 C    0  0  0  0  0  0  0  0  0  0  0  0
    9.2945   13.0682   25.6076 O    0  0  0  0  0  0  0  0  0  0  0  0
    9.4505   14.3174   23.7546 N    0  0  0  0  0  0  0  0  0  0  0  0
    9.9665   15.4825   24.5492 C    0  0  0  0  0  0  0  0  0  0  0  0
   11.5230   15.4853   24.5826 C    0  0  0  0  0  0  0  0  0  0  0  0
   12.1303   14.3136   25.3990 C    0  0  0  0  0  0  0  0  0  0  0  0
   12.3712   14.5462   26.6978 N    0  0  0  0  0  0  0  0  0  0  0  0
   12.3744   13.2151   24.9297 O    0  0  0  0  0  0  0  0  0  0  0  0
   12.1069   15.6140   23.1211 C    0  0  0  0  0  0  0  0  0  0  0  0
   11.3810   14.6583   22.1664 C    0  0  0  0  0  0  0  0  0  0  0  0
   10.3466   15.3122   21.2902 C    0  0  0  0  0  0  0  0  0  0  0  0
    9.9287   14.2850   22.3071 C    0  0  0  0  0  0  0  0  0  0  0  0
    9.3413   10.8497   23.2806 C    0  0  0  0  0  0  0  0  0  0  0  0
    8.8787    9.5342   23.9527 C    0  0  0  0  0  0  0  0  0  0  0  0
    3.7859   14.2004   24.5886 H    0  0  0  0  0  0  0  0  0  0  0  0
    3.9256   14.3817   26.3543 H    0  0  0  0  0  0  0  0  0  0  0  0
    3.6926   12.7678   25.6306 H    0  0  0  0  0  0  0  0  0  0  0  0
    5.0187   11.4647   27.1144 H    0  0  0  0  0  0  0  0  0  0  0  0
    5.4298    9.0335   27.1465 H    0  0  0  0  0  0  0  0  0  0  0  0
    7.0960    8.0449   25.6146 H    0  0  0  0  0  0  0  0  0  0  0  0
    7.7892   12.3709   22.9127 H    0  0  0  0  0  0  0  0  0  0  0  0
    9.5726   15.4822   25.5678 H    0  0  0  0  0  0  0  0  0  0  0  0
    9.5912   16.4187   24.0866 H    0  0  0  0  0  0  0  0  0  0  0  0
   11.8044   16.4069   25.0974 H    0  0  0  0  0  0  0  0  0  0  0  0
   12.1643   15.4412   27.0853 H    0  0  0  0  0  0  0  0  0  0  0  0
   12.9962   13.9356   27.1870 H    0  0  0  0  0  0  0  0  0  0  0  0
   13.1847   15.3737   23.1471 H    0  0  0  0  0  0  0  0  0  0  0  0
   12.0605   16.6694   22.7970 H    0  0  0  0  0  0  0  0  0  0  0  0
   11.9989   13.8294   21.8351 H    0  0  0  0  0  0  0  0  0  0  0  0
   10.3594   15.0081   20.2447 H    0  0  0  0  0  0  0  0  0  0  0  0
   10.0709   16.3384   21.4701 H    0  0  0  0  0  0  0  0  0  0  0  0
    9.5973   13.3208   21.9318 H    0  0  0  0  0  0  0  0  0  0  0  0
   10.4054   11.0604   23.4976 H    0  0  0  0  0  0  0  0  0  0  0  0
    9.2419   10.7372   22.1988 H    0  0  0  0  0  0  0  0  0  0  0  0
    9.6554    9.1551   24.6206 H    0  0  0  0  0  0  0  0  0  0  0  0
    8.6221    8.7527   23.2326 H    0  0  0  0  0  0  0  0  0  0  0  0
  9 10  1  0  0  0  0
  8  9  1  0  0  0  0
  7  8  2  0  0  0  0
  6  7  1  0  0  0  0
  5  6  2  0  0  0  0
  4  5  1  0  0  0  0
  3  4  2  0  0  0  0
  2  3  1  0  0  0  0
  1  2  1  0  0  0  0
 24  1  1  0  0  0  0
 25  1  1  0  0  0  0
 26  1  1  0  0  0  0
 27  4  1  0  0  0  0
 28  5  1  0  0  0  0
 29  6  1  0  0  0  0
 22  9  1  0  0  0  0
 30  9  1  0  0  0  0
 11 10  2  0  0  0  0
 12 10  1  0  0  0  0
 13 12  1  0  0  0  0
 14 13  1  0  0  0  0
 31 13  1  0  0  0  0
 32 13  1  0  0  0  0
 15 14  1  0  0  0  0
 18 14  1  0  0  0  0
 33 14  1  0  0  0  0
 16 15  1  0  0  0  0
 17 15  2  0  0  0  0
 34 16  1  0  0  0  0
 35 16  1  0  0  0  0
 36 18  1  0  0  0  0
 37 18  1  0  0  0  0
 19 18  1  0  0  0  0
 20 19  1  0  0  0  0
 38 19  1  0  0  0  0
 39 20  1  0  0  0  0
 40 20  1  0  0  0  0
 21 20  1  0  0  0  0
 41 21  1  0  0  0  0
 23 22  1  0  0  0  0
 42 22  1  0  0  0  0
 43 22  1  0  0  0  0
 44 23  1  0  0  0  0
 45 23  1  0  0  0  0
  8  3  1  0  0  0  0
 21 12  1  0  0  0  0
 21 19  1  0  0  0  0
 23  7  1  0  0  0  0
M  END
>  <FittedScore>
-16.06

$$$$
