A71EV2A-x4924a_lowest-energy
  FITTED

 33 34     0  0  0  0  0  0  0999 V2000
   10.7011   14.6683   18.8610 N    0  0  0  0  0  0  0  0  0  0  0  0
   10.4085   15.5461   19.8336 C    0  0  0  0  0  0  0  0  0  0  0  0
    9.8224   16.5787   19.5648 O    0  0  0  0  0  0  0  0  0  0  0  0
   10.8267   15.1188   21.2428 C    0  0  0  0  0  0  0  0  0  0  0  0
   11.8256   16.1227   21.8629 C    0  0  0  0  0  0  0  0  0  0  0  0
   12.3090   15.6512   23.2584 C    0  0  0  0  0  0  0  0  0  0  0  0
   11.3138   14.8381   24.0927 C    0  0  0  0  0  0  0  0  0  0  0  0
   11.6873   14.4080   25.1696 O    0  0  0  0  0  0  0  0  0  0  0  0
   10.0402   14.6296   23.6122 N    0  0  0  0  0  0  0  0  0  0  0  0
    8.9240   14.1052   24.4524 C    0  0  0  0  0  0  0  0  0  0  0  0
    8.6935   12.5868   24.4179 C    0  0  0  0  0  0  0  0  0  0  0  0
    7.6149   12.0897   25.1777 C    0  0  0  0  0  0  0  0  0  0  0  0
    7.3219   10.7203   25.2059 C    0  0  0  0  0  0  0  0  0  0  0  0
    8.1049    9.8272   24.4675 C    0  0  0  0  0  0  0  0  0  0  0  0
    9.1782   10.3005   23.7041 C    0  0  0  0  0  0  0  0  0  0  0  0
    9.9161    9.4188   23.0099 F    0  0  0  0  0  0  0  0  0  0  0  0
    9.4822   11.6713   23.6780 C    0  0  0  0  0  0  0  0  0  0  0  0
    9.6240   14.9418   22.2082 C    0  0  0  0  0  0  0  0  0  0  0  0
   11.0167   13.7290   19.0934 H    0  0  0  0  0  0  0  0  0  0  0  0
   10.5857   14.9279   17.8902 H    0  0  0  0  0  0  0  0  0  0  0  0
   11.3288   14.1429   21.1908 H    0  0  0  0  0  0  0  0  0  0  0  0
   11.3399   17.0982   21.9663 H    0  0  0  0  0  0  0  0  0  0  0  0
   12.6862   16.2668   21.2032 H    0  0  0  0  0  0  0  0  0  0  0  0
   12.6028   16.5328   23.8354 H    0  0  0  0  0  0  0  0  0  0  0  0
   13.2115   15.0492   23.1266 H    0  0  0  0  0  0  0  0  0  0  0  0
    7.9903   14.6046   24.1760 H    0  0  0  0  0  0  0  0  0  0  0  0
    9.0859   14.4058   25.4918 H    0  0  0  0  0  0  0  0  0  0  0  0
    6.9989   12.7703   25.7607 H    0  0  0  0  0  0  0  0  0  0  0  0
    6.4885   10.3524   25.7974 H    0  0  0  0  0  0  0  0  0  0  0  0
    7.8815    8.7631   24.4854 H    0  0  0  0  0  0  0  0  0  0  0  0
   10.3289   12.0063   23.0833 H    0  0  0  0  0  0  0  0  0  0  0  0
    9.0237   15.8561   22.2145 H    0  0  0  0  0  0  0  0  0  0  0  0
    8.9834   14.1471   21.8115 H    0  0  0  0  0  0  0  0  0  0  0  0
  7  9  1  0  0  0  0
  6  7  1  0  0  0  0
  5  6  1  0  0  0  0
  4  5  1  0  0  0  0
  2  4  1  0  0  0  0
  1  2  1  0  0  0  0
 19  1  1  0  0  0  0
 20  1  1  0  0  0  0
  3  2  2  0  0  0  0
 21  4  1  0  0  0  0
 22  5  1  0  0  0  0
 23  5  1  0  0  0  0
 24  6  1  0  0  0  0
 25  6  1  0  0  0  0
  8  7  2  0  0  0  0
 10  9  1  0  0  0  0
 18  9  1  0  0  0  0
 11 10  1  0  0  0  0
 26 10  1  0  0  0  0
 27 10  1  0  0  0  0
 12 11  2  0  0  0  0
 13 12  1  0  0  0  0
 28 12  1  0  0  0  0
 14 13  2  0  0  0  0
 29 13  1  0  0  0  0
 15 14  1  0  0  0  0
 30 14  1  0  0  0  0
 16 15  1  0  0  0  0
 17 15  2  0  0  0  0
 31 17  1  0  0  0  0
 32 18  1  0  0  0  0
 33 18  1  0  0  0  0
 17 11  1  0  0  0  0
 18  4  1  0  0  0  0
M  END
>  <FittedScore>
-31.16

$$$$
