A71EV2A-x4924a_best-RMSD
  FITTED

 33 34     0  0  0  0  0  0  0999 V2000
   10.7109   14.6814   18.8624 N    0  0  0  0  0  0  0  0  0  0  0  0
   10.4635   15.6292   19.7841 C    0  0  0  0  0  0  0  0  0  0  0  0
    9.8487   16.6361   19.4865 O    0  0  0  0  0  0  0  0  0  0  0  0
   10.8442   15.2492   21.2112 C    0  0  0  0  0  0  0  0  0  0  0  0
   11.8927   16.2139   21.8185 C    0  0  0  0  0  0  0  0  0  0  0  0
   12.3218   15.7422   23.2349 C    0  0  0  0  0  0  0  0  0  0  0  0
   11.2745   14.9858   24.0609 C    0  0  0  0  0  0  0  0  0  0  0  0
   11.6270   14.4918   25.1167 O    0  0  0  0  0  0  0  0  0  0  0  0
   10.0015   14.8240   23.5568 N    0  0  0  0  0  0  0  0  0  0  0  0
    8.8846   14.1957   24.3217 C    0  0  0  0  0  0  0  0  0  0  0  0
    8.7930   12.6636   24.2121 C    0  0  0  0  0  0  0  0  0  0  0  0
    9.6584   11.8756   23.4170 C    0  0  0  0  0  0  0  0  0  0  0  0
    9.5229   10.4812   23.3768 C    0  0  0  0  0  0  0  0  0  0  0  0
    8.5232    9.8505   24.1211 C    0  0  0  0  0  0  0  0  0  0  0  0
    7.6624   10.6159   24.9138 C    0  0  0  0  0  0  0  0  0  0  0  0
    6.6923   10.0121   25.6203 F    0  0  0  0  0  0  0  0  0  0  0  0
    7.7892   12.0123   24.9560 C    0  0  0  0  0  0  0  0  0  0  0  0
    9.6186   15.1952   22.1600 C    0  0  0  0  0  0  0  0  0  0  0  0
   10.9794   13.7447   19.1587 H    0  0  0  0  0  0  0  0  0  0  0  0
   10.6151   14.8842   17.8760 H    0  0  0  0  0  0  0  0  0  0  0  0
   11.2971   14.2497   21.2074 H    0  0  0  0  0  0  0  0  0  0  0  0
   11.4762   17.2251   21.8857 H    0  0  0  0  0  0  0  0  0  0  0  0
   12.7696   16.2815   21.1682 H    0  0  0  0  0  0  0  0  0  0  0  0
   12.6462   16.6104   23.8128 H    0  0  0  0  0  0  0  0  0  0  0  0
   13.1965   15.0948   23.1294 H    0  0  0  0  0  0  0  0  0  0  0  0
    7.9269   14.6322   24.0188 H    0  0  0  0  0  0  0  0  0  0  0  0
    8.9814   14.4668   25.3763 H    0  0  0  0  0  0  0  0  0  0  0  0
   10.4481   12.3208   22.8193 H    0  0  0  0  0  0  0  0  0  0  0  0
   10.1965    9.8905   22.7621 H    0  0  0  0  0  0  0  0  0  0  0  0
    8.4141    8.7694   24.0772 H    0  0  0  0  0  0  0  0  0  0  0  0
    7.1097   12.5922   25.5764 H    0  0  0  0  0  0  0  0  0  0  0  0
    9.1187   16.1708   22.1834 H    0  0  0  0  0  0  0  0  0  0  0  0
    8.8990   14.4811   21.7447 H    0  0  0  0  0  0  0  0  0  0  0  0
  7  9  1  0  0  0  0
  6  7  1  0  0  0  0
  5  6  1  0  0  0  0
  4  5  1  0  0  0  0
  2  4  1  0  0  0  0
  1  2  1  0  0  0  0
 19  1  1  0  0  0  0
 20  1  1  0  0  0  0
  3  2  2  0  0  0  0
 21  4  1  0  0  0  0
 22  5  1  0  0  0  0
 23  5  1  0  0  0  0
 24  6  1  0  0  0  0
 25  6  1  0  0  0  0
  8  7  2  0  0  0  0
 10  9  1  0  0  0  0
 18  9  1  0  0  0  0
 11 10  1  0  0  0  0
 26 10  1  0  0  0  0
 27 10  1  0  0  0  0
 12 11  2  0  0  0  0
 13 12  1  0  0  0  0
 28 12  1  0  0  0  0
 14 13  2  0  0  0  0
 29 13  1  0  0  0  0
 15 14  1  0  0  0  0
 30 14  1  0  0  0  0
 16 15  1  0  0  0  0
 17 15  2  0  0  0  0
 31 17  1  0  0  0  0
 32 18  1  0  0  0  0
 33 18  1  0  0  0  0
 17 11  1  0  0  0  0
 18  4  1  0  0  0  0
M  END
>  <FittedScore>
-32.17

$$$$
