A71EV2A-x5351a_best-RMSD
  FITTED

 40 41     0  0  0  0  0  0  0999 V2000
    7.0206   13.1916   22.5490 O    0  0  0  0  0  0  0  0  0  0  0  0
    7.8110   13.5355   23.4096 C    0  0  0  0  0  0  0  0  0  0  0  0
    8.7952   14.4497   23.1486 N    0  0  0  0  0  0  0  0  0  0  0  0
    9.7968   14.9855   24.1407 C    0  0  0  0  0  0  0  0  0  0  0  0
   11.2544   15.1235   23.6015 C    0  0  0  0  0  0  0  0  0  0  0  0
   11.3265   15.7588   22.1805 C    0  0  0  0  0  0  0  0  0  0  0  0
    8.9146   15.1157   21.8222 C    0  0  0  0  0  0  0  0  0  0  0  0
   10.3437   15.0157   21.2323 C    0  0  0  0  0  0  0  0  0  0  0  0
   10.3769   15.5288   19.7947 C    0  0  0  0  0  0  0  0  0  0  0  0
    9.7588   16.5086   19.4242 O    0  0  0  0  0  0  0  0  0  0  0  0
   10.9581   14.7051   18.9032 N    0  0  0  0  0  0  0  0  0  0  0  0
    7.8006   12.9843   24.6532 O    0  0  0  0  0  0  0  0  0  0  0  0
    6.6601   12.2824   25.2199 C    0  0  0  0  0  0  0  0  0  0  0  0
    7.1869   11.3567   26.3474 C    0  0  0  0  0  0  0  0  0  0  0  0
    6.0304   10.6957   27.1451 C    0  0  0  0  0  0  0  0  0  0  0  0
    5.0027   11.7363   27.6738 C    0  0  0  0  0  0  0  0  0  0  0  0
    4.4952   12.7019   26.5642 C    0  0  0  0  0  0  0  0  0  0  0  0
    5.6506   13.3427   25.7538 C    0  0  0  0  0  0  0  0  0  0  0  0
    9.4408   15.9607   24.4852 H    0  0  0  0  0  0  0  0  0  0  0  0
    9.8501   14.3613   25.0368 H    0  0  0  0  0  0  0  0  0  0  0  0
   11.8446   15.7265   24.2976 H    0  0  0  0  0  0  0  0  0  0  0  0
   11.7230   14.1347   23.5746 H    0  0  0  0  0  0  0  0  0  0  0  0
   11.0655   16.8209   22.2360 H    0  0  0  0  0  0  0  0  0  0  0  0
   12.3462   15.6991   21.7964 H    0  0  0  0  0  0  0  0  0  0  0  0
    8.6295   16.1670   21.9461 H    0  0  0  0  0  0  0  0  0  0  0  0
    8.2148   14.7277   21.0752 H    0  0  0  0  0  0  0  0  0  0  0  0
   10.6212   13.9527   21.2353 H    0  0  0  0  0  0  0  0  0  0  0  0
   11.3458   13.8190   19.2201 H    0  0  0  0  0  0  0  0  0  0  0  0
   10.8111   14.8623   17.9091 H    0  0  0  0  0  0  0  0  0  0  0  0
    6.1890   11.6526   24.4564 H    0  0  0  0  0  0  0  0  0  0  0  0
    7.8183   10.5769   25.9119 H    0  0  0  0  0  0  0  0  0  0  0  0
    7.8202   11.9268   27.0350 H    0  0  0  0  0  0  0  0  0  0  0  0
    5.5197    9.9642   26.5114 H    0  0  0  0  0  0  0  0  0  0  0  0
    6.4480   10.1412   27.9890 H    0  0  0  0  0  0  0  0  0  0  0  0
    4.1496   11.2089   28.1062 H    0  0  0  0  0  0  0  0  0  0  0  0
    5.4557   12.3167   28.4836 H    0  0  0  0  0  0  0  0  0  0  0  0
    3.8317   12.1612   25.8823 H    0  0  0  0  0  0  0  0  0  0  0  0
    3.8974   13.4955   27.0182 H    0  0  0  0  0  0  0  0  0  0  0  0
    5.2279   13.9018   24.9139 H    0  0  0  0  0  0  0  0  0  0  0  0
    6.1751   14.0700   26.3814 H    0  0  0  0  0  0  0  0  0  0  0  0
  2  1  2  0  0  0  0
  3  2  1  0  0  0  0
  4  3  1  0  0  0  0
 19  4  1  0  0  0  0
 20  4  1  0  0  0  0
  5  4  1  0  0  0  0
 21  5  1  0  0  0  0
 22  5  1  0  0  0  0
  6  5  1  0  0  0  0
 23  6  1  0  0  0  0
 24  6  1  0  0  0  0
  7  3  1  0  0  0  0
 25  7  1  0  0  0  0
 26  7  1  0  0  0  0
  8  6  1  0  0  0  0
  9  8  1  0  0  0  0
 27  8  1  0  0  0  0
 10  9  2  0  0  0  0
 11  9  1  0  0  0  0
 28 11  1  0  0  0  0
 29 11  1  0  0  0  0
 12  2  1  0  0  0  0
 13 12  1  0  0  0  0
 18 13  1  0  0  0  0
 30 13  1  0  0  0  0
 14 13  1  0  0  0  0
 31 14  1  0  0  0  0
 32 14  1  0  0  0  0
 15 14  1  0  0  0  0
 33 15  1  0  0  0  0
 34 15  1  0  0  0  0
 16 15  1  0  0  0  0
 35 16  1  0  0  0  0
 36 16  1  0  0  0  0
 17 16  1  0  0  0  0
 37 17  1  0  0  0  0
 38 17  1  0  0  0  0
 39 18  1  0  0  0  0
 40 18  1  0  0  0  0
  8  7  1  0  0  0  0
 18 17  1  0  0  0  0
M  END
>  <FittedScore>
-27.02

$$$$
