A71EV2A-x6932a_best-RMSD
  FITTED

 39 41     0  0  0  0  0  0  0999 V2000
    9.1168    8.3862   23.4794 C    0  0  0  0  0  0  0  0  0  0  0  0
    9.1729   10.1429   23.8972 S    0  0  0  0  0  0  0  0  0  0  0  0
    7.7365   10.6218   24.8760 C    0  0  0  0  0  0  0  0  0  0  0  0
    6.8206    9.6602   25.3176 C    0  0  0  0  0  0  0  0  0  0  0  0
    5.7271   10.0334   26.1135 C    0  0  0  0  0  0  0  0  0  0  0  0
    5.5191   11.3801   26.4841 C    0  0  0  0  0  0  0  0  0  0  0  0
    3.8037   11.9802   27.0771 BR   0  0  0  0  0  0  0  0  0  0  0  0
    6.3428   12.3555   25.9190 C    0  0  0  0  0  0  0  0  0  0  0  0
    7.4547   11.9922   25.1402 C    0  0  0  0  0  0  0  0  0  0  0  0
    8.1862   13.0278   24.6462 O    0  0  0  0  0  0  0  0  0  0  0  0
    8.0378   13.5003   23.4057 C    0  0  0  0  0  0  0  0  0  0  0  0
    7.0773   13.2382   22.7312 O    0  0  0  0  0  0  0  0  0  0  0  0
    9.1108   14.1249   22.8401 N    0  0  0  0  0  0  0  0  0  0  0  0
    9.0140   14.7643   21.5137 C    0  0  0  0  0  0  0  0  0  0  0  0
    9.9978   15.9670   21.4185 C    0  0  0  0  0  0  0  0  0  0  0  0
    9.7754   16.6559   20.1009 C    0  0  0  0  0  0  0  0  0  0  0  0
    9.8433   15.8013   19.0605 N    0  0  0  0  0  0  0  0  0  0  0  0
    9.3031   17.7815   20.0277 O    0  0  0  0  0  0  0  0  0  0  0  0
   11.4934   15.5497   21.6103 C    0  0  0  0  0  0  0  0  0  0  0  0
   11.6636   14.7463   22.9158 C    0  0  0  0  0  0  0  0  0  0  0  0
   10.9214   14.9408   24.1957 C    0  0  0  0  0  0  0  0  0  0  0  0
   10.5036   13.7993   23.2791 C    0  0  0  0  0  0  0  0  0  0  0  0
    9.3320    7.7888   24.3579 H    0  0  0  0  0  0  0  0  0  0  0  0
    9.9056    8.1849   22.7456 H    0  0  0  0  0  0  0  0  0  0  0  0
    8.1274    8.1352   23.0694 H    0  0  0  0  0  0  0  0  0  0  0  0
    6.8509    8.6573   24.8890 H    0  0  0  0  0  0  0  0  0  0  0  0
    4.9649    9.2932   26.2588 H    0  0  0  0  0  0  0  0  0  0  0  0
    6.0621   13.4080   25.9120 H    0  0  0  0  0  0  0  0  0  0  0  0
    8.0108   15.0892   21.1915 H    0  0  0  0  0  0  0  0  0  0  0  0
    9.3375   13.9766   20.8233 H    0  0  0  0  0  0  0  0  0  0  0  0
    9.7482   16.6766   22.2054 H    0  0  0  0  0  0  0  0  0  0  0  0
   10.0528   16.1817   18.1741 H    0  0  0  0  0  0  0  0  0  0  0  0
   10.0836   14.8011   19.2978 H    0  0  0  0  0  0  0  0  0  0  0  0
   12.0974   16.4560   21.5259 H    0  0  0  0  0  0  0  0  0  0  0  0
   11.7893   14.8835   20.7969 H    0  0  0  0  0  0  0  0  0  0  0  0
   12.6920   14.5733   23.1678 H    0  0  0  0  0  0  0  0  0  0  0  0
   10.3518   15.8120   24.1963 H    0  0  0  0  0  0  0  0  0  0  0  0
   11.5258   14.8121   25.0594 H    0  0  0  0  0  0  0  0  0  0  0  0
   10.3502   13.0073   24.0003 H    0  0  0  0  0  0  0  0  0  0  0  0
 11 13  1  0  0  0  0
 10 11  1  0  0  0  0
  9 10  1  0  0  0  0
  8  9  2  0  0  0  0
  6  8  1  0  0  0  0
  5  6  2  0  0  0  0
  4  5  1  0  0  0  0
  3  4  2  0  0  0  0
  2  3  1  0  0  0  0
  1  2  1  0  0  0  0
 23  1  1  0  0  0  0
 24  1  1  0  0  0  0
 25  1  1  0  0  0  0
 26  4  1  0  0  0  0
 27  5  1  0  0  0  0
  7  6  1  0  0  0  0
 28  8  1  0  0  0  0
 12 11  2  0  0  0  0
 14 13  1  0  0  0  0
 15 14  1  0  0  0  0
 29 14  1  0  0  0  0
 30 14  1  0  0  0  0
 16 15  1  0  0  0  0
 19 15  1  0  0  0  0
 31 15  1  0  0  0  0
 17 16  1  0  0  0  0
 18 16  2  0  0  0  0
 32 17  1  0  0  0  0
 33 17  1  0  0  0  0
 34 19  1  0  0  0  0
 35 19  1  0  0  0  0
 20 19  1  0  0  0  0
 21 20  1  0  0  0  0
 36 20  1  0  0  0  0
 37 21  1  0  0  0  0
 38 21  1  0  0  0  0
 22 21  1  0  0  0  0
 39 22  1  0  0  0  0
  9  3  1  0  0  0  0
 22 13  1  0  0  0  0
 22 20  1  0  0  0  0
M  END
>  <FittedScore>
-27.91

$$$$
