A71EV2A-x4899b_lowest-energy
  FITTED

 39 40     0  0  0  0  0  0  0999 V2000
   10.0130   16.8579   19.3499 O    0  0  0  0  0  0  0  0  0  0  0  0
   10.4493   15.7767   19.7014 C    0  0  0  0  0  0  0  0  0  0  0  0
   10.7362   14.8289   18.7818 N    0  0  0  0  0  0  0  0  0  0  0  0
   10.4175   15.2929   21.1543 C    0  0  0  0  0  0  0  0  0  0  0  0
   11.2622   16.1991   22.1036 C    0  0  0  0  0  0  0  0  0  0  0  0
   11.1135   15.7369   23.5798 C    0  0  0  0  0  0  0  0  0  0  0  0
    9.6275   15.6129   24.0028 C    0  0  0  0  0  0  0  0  0  0  0  0
    8.9450   15.1315   21.6363 C    0  0  0  0  0  0  0  0  0  0  0  0
    8.8591   14.7488   23.0687 N    0  0  0  0  0  0  0  0  0  0  0  0
    7.4586   13.9484   23.6387 S    0  0  0  0  0  0  0  0  0  0  0  0
    6.8052   13.2485   22.5690 O    0  0  0  0  0  0  0  0  0  0  0  0
    6.6759   14.8657   24.4164 O    0  0  0  0  0  0  0  0  0  0  0  0
    8.2111   12.8606   24.7181 N    0  0  0  0  0  0  0  0  0  0  0  0
    8.5232   11.5680   24.3585 C    0  0  0  0  0  0  0  0  0  0  0  0
    7.8517   10.4699   24.9512 C    0  0  0  0  0  0  0  0  0  0  0  0
    6.8407   10.7342   25.8770 O    0  0  0  0  0  0  0  0  0  0  0  0
    6.0339    9.7381   26.5515 C    0  0  0  0  0  0  0  0  0  0  0  0
    9.5299   11.3200   23.4073 C    0  0  0  0  0  0  0  0  0  0  0  0
    9.8263    9.9929   23.0647 C    0  0  0  0  0  0  0  0  0  0  0  0
    9.1320    8.9489   23.6865 C    0  0  0  0  0  0  0  0  0  0  0  0
    8.1652    9.1770   24.6146 N    0  0  0  0  0  0  0  0  0  0  0  0
   10.8699   13.8610   19.0756 H    0  0  0  0  0  0  0  0  0  0  0  0
   10.6390   15.0378   17.7935 H    0  0  0  0  0  0  0  0  0  0  0  0
   10.8739   14.2979   21.2116 H    0  0  0  0  0  0  0  0  0  0  0  0
   12.3174   16.1427   21.8210 H    0  0  0  0  0  0  0  0  0  0  0  0
   10.9559   17.2464   22.0115 H    0  0  0  0  0  0  0  0  0  0  0  0
   11.6113   14.7709   23.7174 H    0  0  0  0  0  0  0  0  0  0  0  0
   11.6138   16.4493   24.2400 H    0  0  0  0  0  0  0  0  0  0  0  0
    9.6152   15.2175   25.0228 H    0  0  0  0  0  0  0  0  0  0  0  0
    9.1769   16.6103   24.0587 H    0  0  0  0  0  0  0  0  0  0  0  0
    8.4856   14.3736   20.9965 H    0  0  0  0  0  0  0  0  0  0  0  0
    8.3845   16.0549   21.4527 H    0  0  0  0  0  0  0  0  0  0  0  0
    7.7040   12.9382   25.6013 H    0  0  0  0  0  0  0  0  0  0  0  0
    5.4300    9.1920   25.8240 H    0  0  0  0  0  0  0  0  0  0  0  0
    5.3733   10.2255   27.2690 H    0  0  0  0  0  0  0  0  0  0  0  0
    6.6764    9.0356   27.0942 H    0  0  0  0  0  0  0  0  0  0  0  0
   10.0812   12.1287   22.9311 H    0  0  0  0  0  0  0  0  0  0  0  0
   10.5887    9.7782   22.3233 H    0  0  0  0  0  0  0  0  0  0  0  0
    9.3814    7.9228   23.4230 H    0  0  0  0  0  0  0  0  0  0  0  0
  7  9  1  0  0  0  0
  6  7  1  0  0  0  0
  5  6  1  0  0  0  0
  4  5  1  0  0  0  0
  2  4  1  0  0  0  0
  1  2  2  0  0  0  0
  3  2  1  0  0  0  0
 22  3  1  0  0  0  0
 23  3  1  0  0  0  0
 24  4  1  0  0  0  0
 25  5  1  0  0  0  0
 26  5  1  0  0  0  0
 27  6  1  0  0  0  0
 28  6  1  0  0  0  0
 29  7  1  0  0  0  0
 30  7  1  0  0  0  0
  8  4  1  0  0  0  0
 31  8  1  0  0  0  0
 32  8  1  0  0  0  0
 10  9  1  0  0  0  0
 11 10  2  0  0  0  0
 12 10  2  0  0  0  0
 13 10  1  0  0  0  0
 33 13  1  0  0  0  0
 14 13  1  0  0  0  0
 15 14  1  0  0  0  0
 21 15  2  0  0  0  0
 16 15  1  0  0  0  0
 17 16  1  0  0  0  0
 34 17  1  0  0  0  0
 35 17  1  0  0  0  0
 36 17  1  0  0  0  0
 18 14  2  0  0  0  0
 37 18  1  0  0  0  0
 19 18  1  0  0  0  0
 38 19  1  0  0  0  0
 20 19  2  0  0  0  0
 39 20  1  0  0  0  0
  9  8  1  0  0  0  0
 21 20  1  0  0  0  0
M  END
>  <FittedScore>
-36.73

$$$$
