A71EV2A-x6944a_best-RMSD
  FITTED

 49 51     0  0  0  0  0  0  0999 V2000
    8.9388    8.8211   23.5319 C    0  0  0  0  0  0  0  0  0  0  0  0
    9.0826   10.5807   23.9234 S    0  0  0  0  0  0  0  0  0  0  0  0
    7.6781   11.0472   24.9345 C    0  0  0  0  0  0  0  0  0  0  0  0
    7.0748   10.1013   25.7908 C    0  0  0  0  0  0  0  0  0  0  0  0
    6.0713   10.4826   26.6844 C    0  0  0  0  0  0  0  0  0  0  0  0
    5.6681   11.8202   26.7494 C    0  0  0  0  0  0  0  0  0  0  0  0
    6.2347   12.7646   25.8897 C    0  0  0  0  0  0  0  0  0  0  0  0
    7.2066   12.3915   24.9315 C    0  0  0  0  0  0  0  0  0  0  0  0
    7.7416   13.4249   23.8989 C    0  0  0  0  0  0  0  0  0  0  0  0
    6.7549   14.4858   23.5903 N    0  0  0  0  0  0  0  0  0  0  0  0
    5.7959   14.4532   22.6230 C    0  0  0  0  0  0  0  0  0  0  0  0
    5.7944   13.5359   21.8115 O    0  0  0  0  0  0  0  0  0  0  0  0
    4.8532   15.7052   22.8298 C    0  0  0  0  0  0  0  0  0  0  0  0
    3.7521   14.9889   23.6988 C    0  0  0  0  0  0  0  0  0  0  0  0
    3.0672   14.5821   22.4623 O    0  0  0  0  0  0  0  0  0  0  0  0
    3.8443   15.5307   21.6425 C    0  0  0  0  0  0  0  0  0  0  0  0
    9.0948   14.0648   24.2599 C    0  0  0  0  0  0  0  0  0  0  0  0
    9.5359   13.9841   25.3914 O    0  0  0  0  0  0  0  0  0  0  0  0
    9.8034   14.7070   23.2719 N    0  0  0  0  0  0  0  0  0  0  0  0
   11.0486   15.4908   23.4653 C    0  0  0  0  0  0  0  0  0  0  0  0
   11.4907   16.0488   22.0958 C    0  0  0  0  0  0  0  0  0  0  0  0
   10.7976   15.0982   21.1153 C    0  0  0  0  0  0  0  0  0  0  0  0
   10.5726   15.6308   19.7059 C    0  0  0  0  0  0  0  0  0  0  0  0
   10.8721   14.7525   18.7346 N    0  0  0  0  0  0  0  0  0  0  0  0
    9.8775   16.5948   19.4546 O    0  0  0  0  0  0  0  0  0  0  0  0
    9.4938   14.7294   21.8280 C    0  0  0  0  0  0  0  0  0  0  0  0
    9.1391    8.2434   24.4360 H    0  0  0  0  0  0  0  0  0  0  0  0
    9.6824    8.5683   22.7740 H    0  0  0  0  0  0  0  0  0  0  0  0
    7.9409    8.5981   23.1491 H    0  0  0  0  0  0  0  0  0  0  0  0
    7.4024    9.0683   25.8119 H    0  0  0  0  0  0  0  0  0  0  0  0
    5.6187    9.7475   27.3484 H    0  0  0  0  0  0  0  0  0  0  0  0
    4.9067   12.1314   27.4608 H    0  0  0  0  0  0  0  0  0  0  0  0
    5.8981   13.7951   25.9763 H    0  0  0  0  0  0  0  0  0  0  0  0
    7.8875   12.8512   22.9872 H    0  0  0  0  0  0  0  0  0  0  0  0
    6.7046   15.2421   24.2689 H    0  0  0  0  0  0  0  0  0  0  0  0
    5.2536   16.6906   23.0982 H    0  0  0  0  0  0  0  0  0  0  0  0
    3.1456   15.6880   24.2845 H    0  0  0  0  0  0  0  0  0  0  0  0
    4.0495   14.2289   24.4302 H    0  0  0  0  0  0  0  0  0  0  0  0
    3.2656   16.4394   21.4325 H    0  0  0  0  0  0  0  0  0  0  0  0
    4.2244   15.2458   20.6512 H    0  0  0  0  0  0  0  0  0  0  0  0
   11.8284   14.8430   23.8796 H    0  0  0  0  0  0  0  0  0  0  0  0
   10.8695   16.3106   24.1677 H    0  0  0  0  0  0  0  0  0  0  0  0
   12.5781   16.0305   21.9806 H    0  0  0  0  0  0  0  0  0  0  0  0
   11.1456   17.0818   21.9688 H    0  0  0  0  0  0  0  0  0  0  0  0
   11.4134   14.1888   21.0739 H    0  0  0  0  0  0  0  0  0  0  0  0
   10.7892   15.0147   17.7617 H    0  0  0  0  0  0  0  0  0  0  0  0
   11.0633   13.7818   18.9846 H    0  0  0  0  0  0  0  0  0  0  0  0
    9.1608   13.7643   21.4481 H    0  0  0  0  0  0  0  0  0  0  0  0
    8.6969   15.4550   21.6394 H    0  0  0  0  0  0  0  0  0  0  0  0
  8  9  1  0  0  0  0
  7  8  2  0  0  0  0
  6  7  1  0  0  0  0
  5  6  2  0  0  0  0
  4  5  1  0  0  0  0
  3  4  2  0  0  0  0
  2  3  1  0  0  0  0
  1  2  1  0  0  0  0
 27  1  1  0  0  0  0
 28  1  1  0  0  0  0
 29  1  1  0  0  0  0
 30  4  1  0  0  0  0
 31  5  1  0  0  0  0
 32  6  1  0  0  0  0
 33  7  1  0  0  0  0
 10  9  1  0  0  0  0
 17  9  1  0  0  0  0
 34  9  1  0  0  0  0
 11 10  1  0  0  0  0
 35 10  1  0  0  0  0
 12 11  2  0  0  0  0
 13 11  1  0  0  0  0
 14 13  1  0  0  0  0
 36 13  1  0  0  0  0
 15 14  1  0  0  0  0
 37 14  1  0  0  0  0
 38 14  1  0  0  0  0
 16 15  1  0  0  0  0
 39 16  1  0  0  0  0
 40 16  1  0  0  0  0
 18 17  2  0  0  0  0
 19 17  1  0  0  0  0
 20 19  1  0  0  0  0
 21 20  1  0  0  0  0
 41 20  1  0  0  0  0
 42 20  1  0  0  0  0
 22 21  1  0  0  0  0
 43 21  1  0  0  0  0
 44 21  1  0  0  0  0
 23 22  1  0  0  0  0
 26 22  1  0  0  0  0
 45 22  1  0  0  0  0
 24 23  1  0  0  0  0
 25 23  2  0  0  0  0
 46 24  1  0  0  0  0
 47 24  1  0  0  0  0
 48 26  1  0  0  0  0
 49 26  1  0  0  0  0
  8  3  1  0  0  0  0
 16 13  1  0  0  0  0
 26 19  1  0  0  0  0
M  END
>  <FittedScore>
-43.97

$$$$
