A71EV2A-x3579a_best-RMSD
  FITTED

 37 38     0  0  0  0  0  0  0999 V2000
   10.9403   14.5890   25.2874 O    0  0  0  0  0  0  0  0  0  0  0  0
   10.7814   14.9518   24.1300 C    0  0  0  0  0  0  0  0  0  0  0  0
   11.9755   15.5647   23.3809 C    0  0  0  0  0  0  0  0  0  0  0  0
   11.6705   16.1045   21.9555 C    0  0  0  0  0  0  0  0  0  0  0  0
   10.7184   15.1414   21.2012 C    0  0  0  0  0  0  0  0  0  0  0  0
   10.4599   15.5815   19.7588 C    0  0  0  0  0  0  0  0  0  0  0  0
    9.8424   16.5908   19.4594 O    0  0  0  0  0  0  0  0  0  0  0  0
   10.7601   14.6554   18.8297 N    0  0  0  0  0  0  0  0  0  0  0  0
    9.4008   14.9644   22.0035 C    0  0  0  0  0  0  0  0  0  0  0  0
    9.6079   14.7212   23.4552 N    0  0  0  0  0  0  0  0  0  0  0  0
    8.4241   14.0878   24.1119 C    0  0  0  0  0  0  0  0  0  0  0  0
    8.4730   12.5486   24.2254 C    0  0  0  0  0  0  0  0  0  0  0  0
    7.4733   11.8754   24.9755 C    0  0  0  0  0  0  0  0  0  0  0  0
    6.4916   12.6036   25.6489 O    0  0  0  0  0  0  0  0  0  0  0  0
    5.5901   12.0564   26.6446 C    0  0  0  0  0  0  0  0  0  0  0  0
    9.4631   11.7733   23.5718 C    0  0  0  0  0  0  0  0  0  0  0  0
    9.4489   10.3781   23.6407 C    0  0  0  0  0  0  0  0  0  0  0  0
    8.4461    9.7275   24.3623 C    0  0  0  0  0  0  0  0  0  0  0  0
    7.4798   10.4638   25.0319 C    0  0  0  0  0  0  0  0  0  0  0  0
   12.3937   16.3808   23.9795 H    0  0  0  0  0  0  0  0  0  0  0  0
   12.7608   14.8066   23.3053 H    0  0  0  0  0  0  0  0  0  0  0  0
   11.2272   17.1030   22.0256 H    0  0  0  0  0  0  0  0  0  0  0  0
   12.6069   16.2114   21.4047 H    0  0  0  0  0  0  0  0  0  0  0  0
   11.2094   14.1588   21.1925 H    0  0  0  0  0  0  0  0  0  0  0  0
   11.0063   13.7035   19.1001 H    0  0  0  0  0  0  0  0  0  0  0  0
   10.6771   14.8748   17.8485 H    0  0  0  0  0  0  0  0  0  0  0  0
    8.7736   15.8568   21.9005 H    0  0  0  0  0  0  0  0  0  0  0  0
    8.8430   14.1402   21.5394 H    0  0  0  0  0  0  0  0  0  0  0  0
    8.3337   14.5208   25.1085 H    0  0  0  0  0  0  0  0  0  0  0  0
    7.5009   14.3827   23.6028 H    0  0  0  0  0  0  0  0  0  0  0  0
    4.8928   11.3728   26.1612 H    0  0  0  0  0  0  0  0  0  0  0  0
    5.0260   12.8707   27.1094 H    0  0  0  0  0  0  0  0  0  0  0  0
    6.1626   11.5320   27.4110 H    0  0  0  0  0  0  0  0  0  0  0  0
   10.2626   12.2265   22.9902 H    0  0  0  0  0  0  0  0  0  0  0  0
   10.2098    9.8021   23.1306 H    0  0  0  0  0  0  0  0  0  0  0  0
    8.4091    8.6431   24.3891 H    0  0  0  0  0  0  0  0  0  0  0  0
    6.7233    9.9167   25.5806 H    0  0  0  0  0  0  0  0  0  0  0  0
  9 10  1  0  0  0  0
  5  9  1  0  0  0  0
  6  5  1  0  0  0  0
  4  5  1  0  0  0  0
  3  4  1  0  0  0  0
  2  3  1  0  0  0  0
  1  2  2  0  0  0  0
 20  3  1  0  0  0  0
 21  3  1  0  0  0  0
 22  4  1  0  0  0  0
 23  4  1  0  0  0  0
 24  5  1  0  0  0  0
  7  6  2  0  0  0  0
  8  6  1  0  0  0  0
 25  8  1  0  0  0  0
 26  8  1  0  0  0  0
 27  9  1  0  0  0  0
 28  9  1  0  0  0  0
 11 10  1  0  0  0  0
 29 11  1  0  0  0  0
 30 11  1  0  0  0  0
 12 11  1  0  0  0  0
 13 12  1  0  0  0  0
 19 13  2  0  0  0  0
 14 13  1  0  0  0  0
 15 14  1  0  0  0  0
 31 15  1  0  0  0  0
 32 15  1  0  0  0  0
 33 15  1  0  0  0  0
 16 12  2  0  0  0  0
 34 16  1  0  0  0  0
 17 16  1  0  0  0  0
 35 17  1  0  0  0  0
 18 17  2  0  0  0  0
 36 18  1  0  0  0  0
 37 19  1  0  0  0  0
 10  2  1  0  0  0  0
 19 18  1  0  0  0  0
M  END
>  <FittedScore>
-33.08

$$$$
