A71EV2A-x2290a_best-RMSD
  FITTED

 25 26     0  0  0  0  0  0  0999 V2000
    9.9028   14.2243   24.2739 O    0  0  0  0  0  0  0  0  0  0  0  0
   10.1301   13.3267   23.4825 C    0  0  0  0  0  0  0  0  0  0  0  0
   10.8421   13.5098   22.3300 N    0  0  0  0  0  0  0  0  0  0  0  0
   11.4797   14.7731   21.9124 C    0  0  0  0  0  0  0  0  0  0  0  0
    9.5912   12.0205   23.7017 C    0  0  0  0  0  0  0  0  0  0  0  0
    8.5530   11.6224   24.6990 C    0  0  0  0  0  0  0  0  0  0  0  0
    8.3648   10.2680   24.5232 C    0  0  0  0  0  0  0  0  0  0  0  0
    9.2349    9.8833   23.5523 N    0  0  0  0  0  0  0  0  0  0  0  0
    9.4602    8.5419   23.0142 C    0  0  0  0  0  0  0  0  0  0  0  0
    9.9367   10.9417   23.0584 N    0  0  0  0  0  0  0  0  0  0  0  0
    7.7842   12.3375   25.6330 C    0  0  0  0  0  0  0  0  0  0  0  0
    6.8261   11.6339   26.3895 C    0  0  0  0  0  0  0  0  0  0  0  0
    6.6351   10.2500   26.1986 C    0  0  0  0  0  0  0  0  0  0  0  0
    7.4079    9.5496   25.2547 C    0  0  0  0  0  0  0  0  0  0  0  0
   10.8978   12.7423   21.6587 H    0  0  0  0  0  0  0  0  0  0  0  0
   10.8713   15.6343   22.2041 H    0  0  0  0  0  0  0  0  0  0  0  0
   11.6009   14.7854   20.8278 H    0  0  0  0  0  0  0  0  0  0  0  0
   12.4607   14.8758   22.3774 H    0  0  0  0  0  0  0  0  0  0  0  0
   10.0986    8.5392   22.1273 H    0  0  0  0  0  0  0  0  0  0  0  0
    8.5176    8.0729   22.7252 H    0  0  0  0  0  0  0  0  0  0  0  0
    9.9386    7.9003   23.7581 H    0  0  0  0  0  0  0  0  0  0  0  0
    7.9063   13.4073   25.7749 H    0  0  0  0  0  0  0  0  0  0  0  0
    6.2234   12.1668   27.1204 H    0  0  0  0  0  0  0  0  0  0  0  0
    5.8793    9.7232   26.7788 H    0  0  0  0  0  0  0  0  0  0  0  0
    7.2595    8.4844   25.1002 H    0  0  0  0  0  0  0  0  0  0  0  0
  2  5  1  0  0  0  0
  3  2  1  0  0  0  0
 15  3  1  0  0  0  0
  1  2  2  0  0  0  0
  4  3  1  0  0  0  0
 16  4  1  0  0  0  0
 17  4  1  0  0  0  0
 18  4  1  0  0  0  0
 10  5  2  0  0  0  0
  6  5  1  0  0  0  0
  7  6  1  0  0  0  0
 14  7  2  0  0  0  0
  8  7  1  0  0  0  0
  9  8  1  0  0  0  0
 19  9  1  0  0  0  0
 20  9  1  0  0  0  0
 21  9  1  0  0  0  0
 11  6  2  0  0  0  0
 22 11  1  0  0  0  0
 12 11  1  0  0  0  0
 23 12  1  0  0  0  0
 13 12  2  0  0  0  0
 24 13  1  0  0  0  0
 25 14  1  0  0  0  0
 10  8  1  0  0  0  0
 14 13  1  0  0  0  0
M  END
>  <FittedScore>
-22.33

$$$$
