A71EV2A-x5489a_best-RMSD
  FITTED

 37 38     0  0  0  0  0  0  0999 V2000
    9.5251   10.0454   23.5113 N    0  0  0  0  0  0  0  0  0  0  0  0
    8.6297   10.3200   24.1555 C    0  0  0  0  0  0  0  0  0  0  0  0
    7.5001   10.6622   24.9966 C    0  0  0  0  0  0  0  0  0  0  0  0
    6.7029    9.6123   25.4750 C    0  0  0  0  0  0  0  0  0  0  0  0
    5.6273    9.8672   26.3345 C    0  0  0  0  0  0  0  0  0  0  0  0
    5.3081   11.1849   26.6855 C    0  0  0  0  0  0  0  0  0  0  0  0
    6.0807   12.2421   26.1961 C    0  0  0  0  0  0  0  0  0  0  0  0
    7.1927   11.9970   25.3663 C    0  0  0  0  0  0  0  0  0  0  0  0
    8.0640   13.1877   24.9399 C    0  0  0  0  0  0  0  0  0  0  0  0
    7.9142   13.6434   23.4790 C    0  0  0  0  0  0  0  0  0  0  0  0
    7.0773   13.1229   22.7559 O    0  0  0  0  0  0  0  0  0  0  0  0
    8.7158   14.6805   23.0300 N    0  0  0  0  0  0  0  0  0  0  0  0
    9.5927   15.5702   23.8819 C    0  0  0  0  0  0  0  0  0  0  0  0
   11.0655   15.6312   23.3934 C    0  0  0  0  0  0  0  0  0  0  0  0
   11.1438   16.0786   21.9161 C    0  0  0  0  0  0  0  0  0  0  0  0
   10.1897   15.2234   21.0315 C    0  0  0  0  0  0  0  0  0  0  0  0
   10.2381   15.7141   19.5921 C    0  0  0  0  0  0  0  0  0  0  0  0
   10.7698   14.8419   18.7121 N    0  0  0  0  0  0  0  0  0  0  0  0
    9.8172   16.7966   19.2307 O    0  0  0  0  0  0  0  0  0  0  0  0
    8.7367   15.1563   21.6057 C    0  0  0  0  0  0  0  0  0  0  0  0
    6.9225    8.5876   25.1841 H    0  0  0  0  0  0  0  0  0  0  0  0
    5.0205    9.0445   26.7017 H    0  0  0  0  0  0  0  0  0  0  0  0
    4.4556   11.3848   27.3293 H    0  0  0  0  0  0  0  0  0  0  0  0
    5.8194   13.2596   26.4832 H    0  0  0  0  0  0  0  0  0  0  0  0
    9.1123   12.9361   25.1433 H    0  0  0  0  0  0  0  0  0  0  0  0
    7.8233   14.0410   25.5809 H    0  0  0  0  0  0  0  0  0  0  0  0
    9.6257   15.2931   24.9320 H    0  0  0  0  0  0  0  0  0  0  0  0
    9.1746   16.5835   23.8816 H    0  0  0  0  0  0  0  0  0  0  0  0
   11.5330   14.6465   23.5061 H    0  0  0  0  0  0  0  0  0  0  0  0
   11.6348   16.3280   24.0125 H    0  0  0  0  0  0  0  0  0  0  0  0
   12.1704   15.9672   21.5584 H    0  0  0  0  0  0  0  0  0  0  0  0
   10.8853   17.1387   21.8413 H    0  0  0  0  0  0  0  0  0  0  0  0
   10.5662   14.1933   21.0717 H    0  0  0  0  0  0  0  0  0  0  0  0
   10.8304   15.0919   17.7339 H    0  0  0  0  0  0  0  0  0  0  0  0
   10.9769   13.8877   19.0036 H    0  0  0  0  0  0  0  0  0  0  0  0
    8.1524   14.5124   20.9394 H    0  0  0  0  0  0  0  0  0  0  0  0
    8.2597   16.1430   21.5468 H    0  0  0  0  0  0  0  0  0  0  0  0
  9 10  1  0  0  0  0
  8  9  1  0  0  0  0
  7  8  2  0  0  0  0
  6  7  1  0  0  0  0
  5  6  2  0  0  0  0
  4  5  1  0  0  0  0
  3  4  2  0  0  0  0
  2  3  1  0  0  0  0
  1  2  3  0  0  0  0
 21  4  1  0  0  0  0
 22  5  1  0  0  0  0
 23  6  1  0  0  0  0
 24  7  1  0  0  0  0
 25  9  1  0  0  0  0
 26  9  1  0  0  0  0
 11 10  2  0  0  0  0
 12 10  1  0  0  0  0
 13 12  1  0  0  0  0
 14 13  1  0  0  0  0
 27 13  1  0  0  0  0
 28 13  1  0  0  0  0
 15 14  1  0  0  0  0
 29 14  1  0  0  0  0
 30 14  1  0  0  0  0
 16 15  1  0  0  0  0
 31 15  1  0  0  0  0
 32 15  1  0  0  0  0
 17 16  1  0  0  0  0
 20 16  1  0  0  0  0
 33 16  1  0  0  0  0
 18 17  1  0  0  0  0
 19 17  2  0  0  0  0
 34 18  1  0  0  0  0
 35 18  1  0  0  0  0
 36 20  1  0  0  0  0
 37 20  1  0  0  0  0
  8  3  1  0  0  0  0
 20 12  1  0  0  0  0
M  END
>  <FittedScore>
-31.61

$$$$
