A71EV2A-x7024a_best-RMSD
  FITTED

 60 63     0  0  0  0  0  0  0999 V2000
    9.6660    8.5407   23.4385 C    0  0  0  0  0  0  0  0  0  0  0  0
    9.5530   10.3015   23.8754 S    0  0  0  0  0  0  0  0  0  0  0  0
    8.1025   10.4716   24.9142 C    0  0  0  0  0  0  0  0  0  0  0  0
    7.4292    9.3352   25.2531 N    0  0  0  0  0  0  0  0  0  0  0  0
    6.3429    9.4531   26.0522 C    0  0  0  0  0  0  0  0  0  0  0  0
    5.8440   10.6315   26.4986 N    0  0  0  0  0  0  0  0  0  0  0  0
    6.4579   11.7952   26.1360 C    0  0  0  0  0  0  0  0  0  0  0  0
    5.8209   12.9782   26.5148 N    0  0  0  0  0  0  0  0  0  0  0  0
    5.3528   13.9602   25.5225 C    0  0  0  0  0  0  0  0  0  0  0  0
    4.0549   14.5364   26.0888 C    0  0  0  0  0  0  0  0  0  0  0  0
    4.2019   14.4171   27.6349 C    0  0  0  0  0  0  0  0  0  0  0  0
    2.8241   14.2299   28.3375 C    0  0  0  0  0  0  0  0  0  0  0  0
    2.3064   15.6417   28.6719 C    0  0  0  0  0  0  0  0  0  0  0  0
    3.5377   16.5675   28.7241 C    0  0  0  0  0  0  0  0  0  0  0  0
    4.7558   15.7409   28.2584 C    0  0  0  0  0  0  0  0  0  0  0  0
    5.1631   13.1986   27.8197 C    0  0  0  0  0  0  0  0  0  0  0  0
    7.6609   11.7516   25.3630 C    0  0  0  0  0  0  0  0  0  0  0  0
    8.4667   13.0273   25.0324 C    0  0  0  0  0  0  0  0  0  0  0  0
    8.2066   13.6170   23.6313 C    0  0  0  0  0  0  0  0  0  0  0  0
    7.4000   13.0831   22.8868 O    0  0  0  0  0  0  0  0  0  0  0  0
    8.9109   14.7275   23.2255 N    0  0  0  0  0  0  0  0  0  0  0  0
    9.8798   15.5245   24.0530 C    0  0  0  0  0  0  0  0  0  0  0  0
   11.3284   15.4524   23.5023 C    0  0  0  0  0  0  0  0  0  0  0  0
   11.3956   15.8902   22.0153 C    0  0  0  0  0  0  0  0  0  0  0  0
   10.3234   15.1397   21.1707 C    0  0  0  0  0  0  0  0  0  0  0  0
   10.3311   15.6349   19.7345 C    0  0  0  0  0  0  0  0  0  0  0  0
   10.8350   14.7803   18.8247 N    0  0  0  0  0  0  0  0  0  0  0  0
    9.8717   16.7071   19.3978 O    0  0  0  0  0  0  0  0  0  0  0  0
    8.9035   15.2320   21.8153 C    0  0  0  0  0  0  0  0  0  0  0  0
   10.5512    8.3795   22.8213 H    0  0  0  0  0  0  0  0  0  0  0  0
    8.7804    8.2345   22.8808 H    0  0  0  0  0  0  0  0  0  0  0  0
    9.7569    7.9412   24.3480 H    0  0  0  0  0  0  0  0  0  0  0  0
    5.8216    8.5435   26.3414 H    0  0  0  0  0  0  0  0  0  0  0  0
    5.1598   13.5027   24.5491 H    0  0  0  0  0  0  0  0  0  0  0  0
    6.0730   14.7675   25.3749 H    0  0  0  0  0  0  0  0  0  0  0  0
    3.2129   13.9482   25.7070 H    0  0  0  0  0  0  0  0  0  0  0  0
    3.9036   15.5653   25.7441 H    0  0  0  0  0  0  0  0  0  0  0  0
    2.9347   13.6664   29.2699 H    0  0  0  0  0  0  0  0  0  0  0  0
    2.0977   13.6852   27.7270 H    0  0  0  0  0  0  0  0  0  0  0  0
    1.7761   15.6439   29.6282 H    0  0  0  0  0  0  0  0  0  0  0  0
    1.6081   15.9790   27.9002 H    0  0  0  0  0  0  0  0  0  0  0  0
    3.6945   16.9387   29.7409 H    0  0  0  0  0  0  0  0  0  0  0  0
    3.3914   17.4352   28.0746 H    0  0  0  0  0  0  0  0  0  0  0  0
    5.3922   15.5466   29.1282 H    0  0  0  0  0  0  0  0  0  0  0  0
    5.3628   16.3148   27.5494 H    0  0  0  0  0  0  0  0  0  0  0  0
    4.5912   12.3206   28.1446 H    0  0  0  0  0  0  0  0  0  0  0  0
    5.9137   13.3659   28.5966 H    0  0  0  0  0  0  0  0  0  0  0  0
    9.5318   12.8253   25.1375 H    0  0  0  0  0  0  0  0  0  0  0  0
    8.2711   13.7824   25.7962 H    0  0  0  0  0  0  0  0  0  0  0  0
    9.9090   15.2337   25.1006 H    0  0  0  0  0  0  0  0  0  0  0  0
    9.5498   16.5675   24.0728 H    0  0  0  0  0  0  0  0  0  0  0  0
   11.7105   14.4323   23.6036 H    0  0  0  0  0  0  0  0  0  0  0  0
   11.9792   16.0962   24.1010 H    0  0  0  0  0  0  0  0  0  0  0  0
   12.3901   15.6705   21.6210 H    0  0  0  0  0  0  0  0  0  0  0  0
   11.2572   16.9760   21.9443 H    0  0  0  0  0  0  0  0  0  0  0  0
   10.6005   14.0798   21.1675 H    0  0  0  0  0  0  0  0  0  0  0  0
   11.0621   13.8202   19.0932 H    0  0  0  0  0  0  0  0  0  0  0  0
   10.8456   15.0389   17.8469 H    0  0  0  0  0  0  0  0  0  0  0  0
    8.2049   14.6921   21.1681 H    0  0  0  0  0  0  0  0  0  0  0  0
    8.5411   16.2651   21.8102 H    0  0  0  0  0  0  0  0  0  0  0  0
 17 18  1  0  0  0  0
  7 17  2  0  0  0  0
  6  7  1  0  0  0  0
  5  6  2  0  0  0  0
  4  5  1  0  0  0  0
  3  4  2  0  0  0  0
  2  3  1  0  0  0  0
  1  2  1  0  0  0  0
 30  1  1  0  0  0  0
 31  1  1  0  0  0  0
 32  1  1  0  0  0  0
 33  5  1  0  0  0  0
  8  7  1  0  0  0  0
  9  8  1  0  0  0  0
 10  9  1  0  0  0  0
 34  9  1  0  0  0  0
 35  9  1  0  0  0  0
 11 10  1  0  0  0  0
 36 10  1  0  0  0  0
 37 10  1  0  0  0  0
 12 11  1  0  0  0  0
 16 11  1  0  0  0  0
 13 12  1  0  0  0  0
 38 12  1  0  0  0  0
 39 12  1  0  0  0  0
 14 13  1  0  0  0  0
 40 13  1  0  0  0  0
 41 13  1  0  0  0  0
 15 14  1  0  0  0  0
 42 14  1  0  0  0  0
 43 14  1  0  0  0  0
 44 15  1  0  0  0  0
 45 15  1  0  0  0  0
 46 16  1  0  0  0  0
 47 16  1  0  0  0  0
 19 18  1  0  0  0  0
 48 18  1  0  0  0  0
 49 18  1  0  0  0  0
 20 19  2  0  0  0  0
 21 19  1  0  0  0  0
 22 21  1  0  0  0  0
 23 22  1  0  0  0  0
 50 22  1  0  0  0  0
 51 22  1  0  0  0  0
 24 23  1  0  0  0  0
 52 23  1  0  0  0  0
 53 23  1  0  0  0  0
 25 24  1  0  0  0  0
 54 24  1  0  0  0  0
 55 24  1  0  0  0  0
 26 25  1  0  0  0  0
 29 25  1  0  0  0  0
 56 25  1  0  0  0  0
 27 26  1  0  0  0  0
 28 26  2  0  0  0  0
 57 27  1  0  0  0  0
 58 27  1  0  0  0  0
 59 29  1  0  0  0  0
 60 29  1  0  0  0  0
 15 11  1  0  0  0  0
 16  8  1  0  0  0  0
 17  3  1  0  0  0  0
 29 21  1  0  0  0  0
M  END
>  <FittedScore>
-36.94

$$$$
