A71EV2A-x7024a_lowest-energy
  FITTED

 60 63     0  0  0  0  0  0  0999 V2000
    9.6377    8.4378   23.4065 C    0  0  0  0  0  0  0  0  0  0  0  0
    9.5510   10.2039   23.8260 S    0  0  0  0  0  0  0  0  0  0  0  0
    8.1310   10.3990   24.8985 C    0  0  0  0  0  0  0  0  0  0  0  0
    7.4099    9.2837   25.2044 N    0  0  0  0  0  0  0  0  0  0  0  0
    6.3578    9.4112   26.0513 C    0  0  0  0  0  0  0  0  0  0  0  0
    5.9584   10.5778   26.6132 N    0  0  0  0  0  0  0  0  0  0  0  0
    6.6376   11.7125   26.2963 C    0  0  0  0  0  0  0  0  0  0  0  0
    6.1642   12.8455   26.9222 N    0  0  0  0  0  0  0  0  0  0  0  0
    6.5930   13.1900   28.2804 C    0  0  0  0  0  0  0  0  0  0  0  0
    6.1133   14.6301   28.5073 C    0  0  0  0  0  0  0  0  0  0  0  0
    5.7944   15.2104   27.0904 C    0  0  0  0  0  0  0  0  0  0  0  0
    6.9921   16.0412   26.5244 C    0  0  0  0  0  0  0  0  0  0  0  0
    6.7362   17.5154   26.8909 C    0  0  0  0  0  0  0  0  0  0  0  0
    5.2797   17.6167   27.3834 C    0  0  0  0  0  0  0  0  0  0  0  0
    4.6329   16.2411   27.1308 C    0  0  0  0  0  0  0  0  0  0  0  0
    5.4653   13.9431   26.2420 C    0  0  0  0  0  0  0  0  0  0  0  0
    7.7647   11.6737   25.4208 C    0  0  0  0  0  0  0  0  0  0  0  0
    8.5747   12.9366   25.0653 C    0  0  0  0  0  0  0  0  0  0  0  0
    8.2231   13.5794   23.7099 C    0  0  0  0  0  0  0  0  0  0  0  0
    7.3636   13.0793   22.9993 O    0  0  0  0  0  0  0  0  0  0  0  0
    8.9498   14.6685   23.2768 N    0  0  0  0  0  0  0  0  0  0  0  0
    9.9437   15.4588   24.0819 C    0  0  0  0  0  0  0  0  0  0  0  0
   11.3826   15.3393   23.5158 C    0  0  0  0  0  0  0  0  0  0  0  0
   11.4479   15.7644   22.0273 C    0  0  0  0  0  0  0  0  0  0  0  0
   10.3289   15.0758   21.1892 C    0  0  0  0  0  0  0  0  0  0  0  0
   10.3316   15.6135   19.7652 C    0  0  0  0  0  0  0  0  0  0  0  0
   10.8691   14.8009   18.8340 N    0  0  0  0  0  0  0  0  0  0  0  0
    9.8248   16.6773   19.4501 O    0  0  0  0  0  0  0  0  0  0  0  0
    8.9219   15.1771   21.8665 C    0  0  0  0  0  0  0  0  0  0  0  0
    8.7273    8.1367   22.8826 H    0  0  0  0  0  0  0  0  0  0  0  0
    9.7501    7.8426   24.3151 H    0  0  0  0  0  0  0  0  0  0  0  0
   10.4961    8.2504   22.7574 H    0  0  0  0  0  0  0  0  0  0  0  0
    5.7906    8.5148   26.2902 H    0  0  0  0  0  0  0  0  0  0  0  0
    7.6818   13.1365   28.3818 H    0  0  0  0  0  0  0  0  0  0  0  0
    6.1561   12.5180   29.0245 H    0  0  0  0  0  0  0  0  0  0  0  0
    6.8630   15.2142   29.0512 H    0  0  0  0  0  0  0  0  0  0  0  0
    5.2247   14.6031   29.1458 H    0  0  0  0  0  0  0  0  0  0  0  0
    7.0593   15.9581   25.4368 H    0  0  0  0  0  0  0  0  0  0  0  0
    7.9553   15.7143   26.9264 H    0  0  0  0  0  0  0  0  0  0  0  0
    6.8941   18.1587   26.0216 H    0  0  0  0  0  0  0  0  0  0  0  0
    7.4292   17.8373   27.6727 H    0  0  0  0  0  0  0  0  0  0  0  0
    4.7373   18.4062   26.8544 H    0  0  0  0  0  0  0  0  0  0  0  0
    5.2543   17.8561   28.4514 H    0  0  0  0  0  0  0  0  0  0  0  0
    4.1023   16.2631   26.1729 H    0  0  0  0  0  0  0  0  0  0  0  0
    3.8879   16.0116   27.8973 H    0  0  0  0  0  0  0  0  0  0  0  0
    5.7519   14.0550   25.1949 H    0  0  0  0  0  0  0  0  0  0  0  0
    4.3907   13.7397   26.2363 H    0  0  0  0  0  0  0  0  0  0  0  0
    9.6425   12.7120   25.0964 H    0  0  0  0  0  0  0  0  0  0  0  0
    8.4559   13.6667   25.8572 H    0  0  0  0  0  0  0  0  0  0  0  0
    9.9780   15.1850   25.1334 H    0  0  0  0  0  0  0  0  0  0  0  0
    9.6393   16.5113   24.0923 H    0  0  0  0  0  0  0  0  0  0  0  0
   11.7365   14.3090   23.6180 H    0  0  0  0  0  0  0  0  0  0  0  0
   12.0607   15.9658   24.0991 H    0  0  0  0  0  0  0  0  0  0  0  0
   12.4246   15.4863   21.6177 H    0  0  0  0  0  0  0  0  0  0  0  0
   11.3609   16.8541   21.9546 H    0  0  0  0  0  0  0  0  0  0  0  0
   10.5680   14.0053   21.1553 H    0  0  0  0  0  0  0  0  0  0  0  0
   11.1355   13.8443   19.0818 H    0  0  0  0  0  0  0  0  0  0  0  0
   10.8725   15.0889   17.8602 H    0  0  0  0  0  0  0  0  0  0  0  0
    8.2134   14.6374   21.2286 H    0  0  0  0  0  0  0  0  0  0  0  0
    8.5711   16.2146   21.8690 H    0  0  0  0  0  0  0  0  0  0  0  0
 17 18  1  0  0  0  0
  7 17  2  0  0  0  0
  6  7  1  0  0  0  0
  5  6  2  0  0  0  0
  4  5  1  0  0  0  0
  3  4  2  0  0  0  0
  2  3  1  0  0  0  0
  1  2  1  0  0  0  0
 30  1  1  0  0  0  0
 31  1  1  0  0  0  0
 32  1  1  0  0  0  0
 33  5  1  0  0  0  0
  8  7  1  0  0  0  0
  9  8  1  0  0  0  0
 10  9  1  0  0  0  0
 34  9  1  0  0  0  0
 35  9  1  0  0  0  0
 11 10  1  0  0  0  0
 36 10  1  0  0  0  0
 37 10  1  0  0  0  0
 12 11  1  0  0  0  0
 16 11  1  0  0  0  0
 13 12  1  0  0  0  0
 38 12  1  0  0  0  0
 39 12  1  0  0  0  0
 14 13  1  0  0  0  0
 40 13  1  0  0  0  0
 41 13  1  0  0  0  0
 15 14  1  0  0  0  0
 42 14  1  0  0  0  0
 43 14  1  0  0  0  0
 44 15  1  0  0  0  0
 45 15  1  0  0  0  0
 46 16  1  0  0  0  0
 47 16  1  0  0  0  0
 19 18  1  0  0  0  0
 48 18  1  0  0  0  0
 49 18  1  0  0  0  0
 20 19  2  0  0  0  0
 21 19  1  0  0  0  0
 22 21  1  0  0  0  0
 23 22  1  0  0  0  0
 50 22  1  0  0  0  0
 51 22  1  0  0  0  0
 24 23  1  0  0  0  0
 52 23  1  0  0  0  0
 53 23  1  0  0  0  0
 25 24  1  0  0  0  0
 54 24  1  0  0  0  0
 55 24  1  0  0  0  0
 26 25  1  0  0  0  0
 29 25  1  0  0  0  0
 56 25  1  0  0  0  0
 27 26  1  0  0  0  0
 28 26  2  0  0  0  0
 57 27  1  0  0  0  0
 58 27  1  0  0  0  0
 59 29  1  0  0  0  0
 60 29  1  0  0  0  0
 15 11  1  0  0  0  0
 16  8  1  0  0  0  0
 17  3  1  0  0  0  0
 29 21  1  0  0  0  0
M  END
>  <FittedScore>
-36.36

$$$$
