A71EV2A-x5879a_lowest-energy
  FITTED

 56 58     0  0  0  0  0  0  0999 V2000
    9.7855   16.7451   19.1949 O    0  0  0  0  0  0  0  0  0  0  0  0
   10.3061   15.7196   19.5959 C    0  0  0  0  0  0  0  0  0  0  0  0
   10.8452   14.8413   18.7268 N    0  0  0  0  0  0  0  0  0  0  0  0
   10.2700   15.2471   21.0473 C    0  0  0  0  0  0  0  0  0  0  0  0
   11.1022   16.1936   21.9598 C    0  0  0  0  0  0  0  0  0  0  0  0
   10.9784   15.7645   23.4434 C    0  0  0  0  0  0  0  0  0  0  0  0
    9.4927   15.5963   23.8662 C    0  0  0  0  0  0  0  0  0  0  0  0
    8.8058   15.0570   21.5583 C    0  0  0  0  0  0  0  0  0  0  0  0
    8.7091   14.6448   22.9986 N    0  0  0  0  0  0  0  0  0  0  0  0
    7.8647   13.6450   23.4436 C    0  0  0  0  0  0  0  0  0  0  0  0
    7.0717   13.1030   22.6875 O    0  0  0  0  0  0  0  0  0  0  0  0
    7.8745   13.2462   24.9336 C    0  0  0  0  0  0  0  0  0  0  0  0
    7.1608   11.9224   25.2475 C    0  0  0  0  0  0  0  0  0  0  0  0
    7.6870   10.6620   24.8666 C    0  0  0  0  0  0  0  0  0  0  0  0
    9.2564   10.5640   24.0000 S    0  0  0  0  0  0  0  0  0  0  0  0
    9.5180    8.8471   23.4662 C    0  0  0  0  0  0  0  0  0  0  0  0
    5.9270   11.9824   25.9215 C    0  0  0  0  0  0  0  0  0  0  0  0
    5.1854   10.8212   26.2065 C    0  0  0  0  0  0  0  0  0  0  0  0
    5.7173    9.5816   25.8185 C    0  0  0  0  0  0  0  0  0  0  0  0
    6.9535    9.5036   25.1764 C    0  0  0  0  0  0  0  0  0  0  0  0
    3.8298   10.8988   26.8572 C    0  0  0  0  0  0  0  0  0  0  0  0
    3.4614    9.9850   27.7701 C    0  0  0  0  0  0  0  0  0  0  0  0
    2.1599   10.0020   28.3716 N    0  0  0  0  0  0  0  0  0  0  0  0
    1.7328    8.8760   29.2438 C    0  0  0  0  0  0  0  0  0  0  0  0
    1.3009   11.0346   28.0441 C    0  0  0  0  0  0  0  0  0  0  0  0
    0.1928   11.1563   28.5355 O    0  0  0  0  0  0  0  0  0  0  0  0
    1.7425   11.9744   27.0329 C    0  0  0  0  0  0  0  0  0  0  0  0
    0.7841   13.0583   26.5410 C    0  0  0  0  0  0  0  0  0  0  0  0
    2.9745   11.8708   26.4995 C    0  0  0  0  0  0  0  0  0  0  0  0
   11.0885   13.8941   19.0224 H    0  0  0  0  0  0  0  0  0  0  0  0
   10.8708   15.0798   17.7447 H    0  0  0  0  0  0  0  0  0  0  0  0
   10.7468   14.2605   21.1064 H    0  0  0  0  0  0  0  0  0  0  0  0
   12.1534   16.1639   21.6591 H    0  0  0  0  0  0  0  0  0  0  0  0
   10.7695   17.2317   21.8469 H    0  0  0  0  0  0  0  0  0  0  0  0
   11.5145   14.8235   23.6027 H    0  0  0  0  0  0  0  0  0  0  0  0
   11.4570   16.5122   24.0798 H    0  0  0  0  0  0  0  0  0  0  0  0
    9.4997   15.3218   24.9186 H    0  0  0  0  0  0  0  0  0  0  0  0
    8.9989   16.5724   23.8399 H    0  0  0  0  0  0  0  0  0  0  0  0
    8.3386   14.3201   20.8984 H    0  0  0  0  0  0  0  0  0  0  0  0
    8.2321   15.9787   21.4228 H    0  0  0  0  0  0  0  0  0  0  0  0
    8.8937   13.1603   25.3206 H    0  0  0  0  0  0  0  0  0  0  0  0
    7.4195   14.0650   25.5002 H    0  0  0  0  0  0  0  0  0  0  0  0
    9.5776    8.1923   24.3359 H    0  0  0  0  0  0  0  0  0  0  0  0
   10.4618    8.7854   22.9245 H    0  0  0  0  0  0  0  0  0  0  0  0
    8.7110    8.5251   22.8041 H    0  0  0  0  0  0  0  0  0  0  0  0
    5.5382   12.9526   26.2221 H    0  0  0  0  0  0  0  0  0  0  0  0
    5.1688    8.6596   25.9967 H    0  0  0  0  0  0  0  0  0  0  0  0
    7.3047    8.5138   24.9204 H    0  0  0  0  0  0  0  0  0  0  0  0
    4.1268    9.1848   28.0931 H    0  0  0  0  0  0  0  0  0  0  0  0
    1.0684    9.2018   30.0481 H    0  0  0  0  0  0  0  0  0  0  0  0
    2.5889    8.3887   29.7182 H    0  0  0  0  0  0  0  0  0  0  0  0
    1.2101    8.1272   28.6426 H    0  0  0  0  0  0  0  0  0  0  0  0
    1.2378   13.7333   25.8117 H    0  0  0  0  0  0  0  0  0  0  0  0
    0.4269   13.6701   27.3726 H    0  0  0  0  0  0  0  0  0  0  0  0
   -0.0871   12.5996   26.0653 H    0  0  0  0  0  0  0  0  0  0  0  0
    3.2660   12.5895   25.7338 H    0  0  0  0  0  0  0  0  0  0  0  0
 12 13  1  0  0  0  0
 10 12  1  0  0  0  0
  9 10  1  0  0  0  0
  7  9  1  0  0  0  0
  6  7  1  0  0  0  0
  5  6  1  0  0  0  0
  4  5  1  0  0  0  0
  2  4  1  0  0  0  0
  1  2  2  0  0  0  0
  3  2  1  0  0  0  0
 30  3  1  0  0  0  0
 31  3  1  0  0  0  0
 32  4  1  0  0  0  0
 33  5  1  0  0  0  0
 34  5  1  0  0  0  0
 35  6  1  0  0  0  0
 36  6  1  0  0  0  0
 37  7  1  0  0  0  0
 38  7  1  0  0  0  0
  8  4  1  0  0  0  0
 39  8  1  0  0  0  0
 40  8  1  0  0  0  0
 11 10  2  0  0  0  0
 41 12  1  0  0  0  0
 42 12  1  0  0  0  0
 14 13  1  0  0  0  0
 20 14  2  0  0  0  0
 15 14  1  0  0  0  0
 16 15  1  0  0  0  0
 43 16  1  0  0  0  0
 44 16  1  0  0  0  0
 45 16  1  0  0  0  0
 17 13  2  0  0  0  0
 46 17  1  0  0  0  0
 18 17  1  0  0  0  0
 19 18  2  0  0  0  0
 47 19  1  0  0  0  0
 48 20  1  0  0  0  0
 21 18  1  0  0  0  0
 29 21  1  0  0  0  0
 22 21  2  0  0  0  0
 49 22  1  0  0  0  0
 23 22  1  0  0  0  0
 24 23  1  0  0  0  0
 50 24  1  0  0  0  0
 51 24  1  0  0  0  0
 52 24  1  0  0  0  0
 25 23  1  0  0  0  0
 26 25  2  0  0  0  0
 27 25  1  0  0  0  0
 28 27  1  0  0  0  0
 53 28  1  0  0  0  0
 54 28  1  0  0  0  0
 55 28  1  0  0  0  0
 56 29  1  0  0  0  0
  9  8  1  0  0  0  0
 20 19  1  0  0  0  0
 29 27  2  0  0  0  0
M  END
>  <FittedScore>
-43.34

$$$$
