A71EV2A-x5879a_best-RMSD
  FITTED

 56 58     0  0  0  0  0  0  0999 V2000
    9.7470   16.7926   19.2479 O    0  0  0  0  0  0  0  0  0  0  0  0
   10.2794   15.7751   19.6563 C    0  0  0  0  0  0  0  0  0  0  0  0
   10.8239   14.9057   18.7860 N    0  0  0  0  0  0  0  0  0  0  0  0
   10.2558   15.3118   21.1114 C    0  0  0  0  0  0  0  0  0  0  0  0
   11.0961   16.2641   22.0142 C    0  0  0  0  0  0  0  0  0  0  0  0
   10.9997   15.8309   23.4975 C    0  0  0  0  0  0  0  0  0  0  0  0
    9.5268   15.6291   23.9451 C    0  0  0  0  0  0  0  0  0  0  0  0
    8.7959   15.1374   21.6440 C    0  0  0  0  0  0  0  0  0  0  0  0
    8.7410   14.6830   23.0743 N    0  0  0  0  0  0  0  0  0  0  0  0
    7.9336   13.6498   23.5127 C    0  0  0  0  0  0  0  0  0  0  0  0
    7.1033   13.1316   22.7768 O    0  0  0  0  0  0  0  0  0  0  0  0
    8.0610   13.1736   24.9724 C    0  0  0  0  0  0  0  0  0  0  0  0
    7.2951   11.8812   25.2788 C    0  0  0  0  0  0  0  0  0  0  0  0
    7.7540   10.6060   24.8660 C    0  0  0  0  0  0  0  0  0  0  0  0
    9.3054   10.4526   23.9688 S    0  0  0  0  0  0  0  0  0  0  0  0
    9.4757    8.7185   23.4667 C    0  0  0  0  0  0  0  0  0  0  0  0
    6.0551   11.9921   25.9341 C    0  0  0  0  0  0  0  0  0  0  0  0
    5.2664   10.8606   26.2084 C    0  0  0  0  0  0  0  0  0  0  0  0
    5.7467    9.5997   25.8278 C    0  0  0  0  0  0  0  0  0  0  0  0
    6.9668    9.4769   25.1653 C    0  0  0  0  0  0  0  0  0  0  0  0
    3.9216   10.9973   26.8572 C    0  0  0  0  0  0  0  0  0  0  0  0
    3.5627   10.1608   27.8412 C    0  0  0  0  0  0  0  0  0  0  0  0
    2.2809   10.2526   28.4737 N    0  0  0  0  0  0  0  0  0  0  0  0
    1.9203    9.3494   29.5963 C    0  0  0  0  0  0  0  0  0  0  0  0
    1.4022   11.2306   28.0420 C    0  0  0  0  0  0  0  0  0  0  0  0
    0.2980   11.3859   28.5364 O    0  0  0  0  0  0  0  0  0  0  0  0
    1.8513   12.1102   26.9765 C    0  0  0  0  0  0  0  0  0  0  0  0
    0.9222   13.2128   26.4634 C    0  0  0  0  0  0  0  0  0  0  0  0
    3.0754   11.9527   26.4375 C    0  0  0  0  0  0  0  0  0  0  0  0
   11.0992   13.9756   19.0886 H    0  0  0  0  0  0  0  0  0  0  0  0
   10.8206   15.1252   17.7967 H    0  0  0  0  0  0  0  0  0  0  0  0
   10.7232   14.3214   21.1889 H    0  0  0  0  0  0  0  0  0  0  0  0
   12.1421   16.2446   21.6942 H    0  0  0  0  0  0  0  0  0  0  0  0
   10.7530   17.2996   21.9099 H    0  0  0  0  0  0  0  0  0  0  0  0
   11.5559   14.8998   23.6428 H    0  0  0  0  0  0  0  0  0  0  0  0
   11.4733   16.5863   24.1276 H    0  0  0  0  0  0  0  0  0  0  0  0
    9.5693   15.3251   24.9871 H    0  0  0  0  0  0  0  0  0  0  0  0
    9.0174   16.5964   23.9572 H    0  0  0  0  0  0  0  0  0  0  0  0
    8.2895   14.4324   20.9755 H    0  0  0  0  0  0  0  0  0  0  0  0
    8.2391   16.0772   21.5490 H    0  0  0  0  0  0  0  0  0  0  0  0
    9.1104   13.0302   25.2403 H    0  0  0  0  0  0  0  0  0  0  0  0
    7.7039   13.9722   25.6270 H    0  0  0  0  0  0  0  0  0  0  0  0
    8.6237    8.4301   22.8458 H    0  0  0  0  0  0  0  0  0  0  0  0
    9.5381    8.0703   24.3411 H    0  0  0  0  0  0  0  0  0  0  0  0
   10.3925    8.5977   22.8875 H    0  0  0  0  0  0  0  0  0  0  0  0
    5.6918   12.9757   26.2269 H    0  0  0  0  0  0  0  0  0  0  0  0
    5.1578    8.7018   26.0116 H    0  0  0  0  0  0  0  0  0  0  0  0
    7.2694    8.4752   24.8853 H    0  0  0  0  0  0  0  0  0  0  0  0
    4.2314    9.3808   28.2044 H    0  0  0  0  0  0  0  0  0  0  0  0
    2.7224    8.6495   29.8403 H    0  0  0  0  0  0  0  0  0  0  0  0
    1.0371    8.7590   29.3383 H    0  0  0  0  0  0  0  0  0  0  0  0
    1.7120    9.9299   30.5001 H    0  0  0  0  0  0  0  0  0  0  0  0
   -0.0179   12.8297   26.0591 H    0  0  0  0  0  0  0  0  0  0  0  0
    1.4088   13.7793   25.6649 H    0  0  0  0  0  0  0  0  0  0  0  0
    0.6519   13.8983   27.2713 H    0  0  0  0  0  0  0  0  0  0  0  0
    3.3862   12.6132   25.6264 H    0  0  0  0  0  0  0  0  0  0  0  0
 12 13  1  0  0  0  0
 10 12  1  0  0  0  0
  9 10  1  0  0  0  0
  7  9  1  0  0  0  0
  6  7  1  0  0  0  0
  5  6  1  0  0  0  0
  4  5  1  0  0  0  0
  2  4  1  0  0  0  0
  1  2  2  0  0  0  0
  3  2  1  0  0  0  0
 30  3  1  0  0  0  0
 31  3  1  0  0  0  0
 32  4  1  0  0  0  0
 33  5  1  0  0  0  0
 34  5  1  0  0  0  0
 35  6  1  0  0  0  0
 36  6  1  0  0  0  0
 37  7  1  0  0  0  0
 38  7  1  0  0  0  0
  8  4  1  0  0  0  0
 39  8  1  0  0  0  0
 40  8  1  0  0  0  0
 11 10  2  0  0  0  0
 41 12  1  0  0  0  0
 42 12  1  0  0  0  0
 14 13  1  0  0  0  0
 20 14  2  0  0  0  0
 15 14  1  0  0  0  0
 16 15  1  0  0  0  0
 43 16  1  0  0  0  0
 44 16  1  0  0  0  0
 45 16  1  0  0  0  0
 17 13  2  0  0  0  0
 46 17  1  0  0  0  0
 18 17  1  0  0  0  0
 19 18  2  0  0  0  0
 47 19  1  0  0  0  0
 48 20  1  0  0  0  0
 21 18  1  0  0  0  0
 29 21  1  0  0  0  0
 22 21  2  0  0  0  0
 49 22  1  0  0  0  0
 23 22  1  0  0  0  0
 24 23  1  0  0  0  0
 50 24  1  0  0  0  0
 51 24  1  0  0  0  0
 52 24  1  0  0  0  0
 25 23  1  0  0  0  0
 26 25  2  0  0  0  0
 27 25  1  0  0  0  0
 28 27  1  0  0  0  0
 53 28  1  0  0  0  0
 54 28  1  0  0  0  0
 55 28  1  0  0  0  0
 56 29  1  0  0  0  0
  9  8  1  0  0  0  0
 20 19  1  0  0  0  0
 29 27  2  0  0  0  0
M  END
>  <FittedScore>
-42.67

$$$$
