A71EV2A-x7135a_best-RMSD
  FITTED

 59 61     0  0  0  0  0  0  0999 V2000
    9.7881    8.6995   23.4192 C    0  0  0  0  0  0  0  0  0  0  0  0
    9.5700   10.4570   23.8687 S    0  0  0  0  0  0  0  0  0  0  0  0
    8.1194   10.5079   24.9150 C    0  0  0  0  0  0  0  0  0  0  0  0
    7.5286    9.3136   25.1973 N    0  0  0  0  0  0  0  0  0  0  0  0
    6.4359    9.3122   25.9929 C    0  0  0  0  0  0  0  0  0  0  0  0
    5.8571   10.4258   26.4891 N    0  0  0  0  0  0  0  0  0  0  0  0
    6.3931   11.6460   26.2021 C    0  0  0  0  0  0  0  0  0  0  0  0
    5.6907   12.7446   26.6996 N    0  0  0  0  0  0  0  0  0  0  0  0
    5.1744   13.8019   25.8147 C    0  0  0  0  0  0  0  0  0  0  0  0
    3.8293   14.2252   26.4132 C    0  0  0  0  0  0  0  0  0  0  0  0
    3.8861   13.8381   27.9000 C    0  0  0  0  0  0  0  0  0  0  0  0
    4.9899   12.7521   28.0125 C    0  0  0  0  0  0  0  0  0  0  0  0
    6.0007   12.8775   29.2138 C    0  0  0  0  0  0  0  0  0  0  0  0
    5.3149   12.5599   30.5723 C    0  0  0  0  0  0  0  0  0  0  0  0
    6.7953   14.2163   29.2842 C    0  0  0  0  0  0  0  0  0  0  0  0
    7.5933   11.7313   25.4232 C    0  0  0  0  0  0  0  0  0  0  0  0
    8.3185   13.0673   25.1364 C    0  0  0  0  0  0  0  0  0  0  0  0
    8.0762   13.6526   23.7310 C    0  0  0  0  0  0  0  0  0  0  0  0
    7.2651   13.1235   22.9878 O    0  0  0  0  0  0  0  0  0  0  0  0
    8.8423   14.7204   23.3051 N    0  0  0  0  0  0  0  0  0  0  0  0
    9.7656   15.5562   24.1470 C    0  0  0  0  0  0  0  0  0  0  0  0
   11.2315   15.5456   23.6338 C    0  0  0  0  0  0  0  0  0  0  0  0
   11.3215   15.9519   22.1359 C    0  0  0  0  0  0  0  0  0  0  0  0
   10.2970   15.1609   21.2632 C    0  0  0  0  0  0  0  0  0  0  0  0
   10.3004   15.6630   19.8140 C    0  0  0  0  0  0  0  0  0  0  0  0
   10.7966   14.8091   18.8967 N    0  0  0  0  0  0  0  0  0  0  0  0
    9.7673   16.6978   19.4591 O    0  0  0  0  0  0  0  0  0  0  0  0
    8.8645   15.2042   21.8882 C    0  0  0  0  0  0  0  0  0  0  0  0
    9.9383    8.0921   24.3137 H    0  0  0  0  0  0  0  0  0  0  0  0
   10.6635    8.5885   22.7767 H    0  0  0  0  0  0  0  0  0  0  0  0
    8.9128    8.3403   22.8720 H    0  0  0  0  0  0  0  0  0  0  0  0
    5.9826    8.3562   26.2409 H    0  0  0  0  0  0  0  0  0  0  0  0
    5.0313   13.4507   24.7890 H    0  0  0  0  0  0  0  0  0  0  0  0
    5.8437   14.6645   25.7787 H    0  0  0  0  0  0  0  0  0  0  0  0
    3.0139   13.6934   25.9125 H    0  0  0  0  0  0  0  0  0  0  0  0
    3.6627   15.2981   26.2829 H    0  0  0  0  0  0  0  0  0  0  0  0
    2.9200   13.4335   28.2169 H    0  0  0  0  0  0  0  0  0  0  0  0
    4.0816   14.7202   28.5152 H    0  0  0  0  0  0  0  0  0  0  0  0
    4.4387   11.8173   28.1609 H    0  0  0  0  0  0  0  0  0  0  0  0
    6.7533   12.0926   29.0773 H    0  0  0  0  0  0  0  0  0  0  0  0
    6.0286   12.6169   31.3984 H    0  0  0  0  0  0  0  0  0  0  0  0
    4.9039   11.5464   30.5702 H    0  0  0  0  0  0  0  0  0  0  0  0
    4.4997   13.2559   30.7839 H    0  0  0  0  0  0  0  0  0  0  0  0
    6.1743   15.0398   29.6472 H    0  0  0  0  0  0  0  0  0  0  0  0
    7.2085   14.4988   28.3137 H    0  0  0  0  0  0  0  0  0  0  0  0
    7.6356   14.1205   29.9770 H    0  0  0  0  0  0  0  0  0  0  0  0
    9.3894   12.9189   25.2966 H    0  0  0  0  0  0  0  0  0  0  0  0
    8.0552   13.8083   25.8892 H    0  0  0  0  0  0  0  0  0  0  0  0
    9.7784   15.2735   25.1968 H    0  0  0  0  0  0  0  0  0  0  0  0
    9.4024   16.5887   24.1535 H    0  0  0  0  0  0  0  0  0  0  0  0
   11.6544   14.5462   23.7700 H    0  0  0  0  0  0  0  0  0  0  0  0
   11.8392   16.2301   24.2325 H    0  0  0  0  0  0  0  0  0  0  0  0
   12.3352   15.7659   21.7720 H    0  0  0  0  0  0  0  0  0  0  0  0
   11.1422   17.0263   22.0430 H    0  0  0  0  0  0  0  0  0  0  0  0
   10.6114   14.1084   21.2827 H    0  0  0  0  0  0  0  0  0  0  0  0
   10.7779   15.0543   17.9136 H    0  0  0  0  0  0  0  0  0  0  0  0
   11.0064   13.8525   19.1675 H    0  0  0  0  0  0  0  0  0  0  0  0
    8.2023   14.6302   21.2355 H    0  0  0  0  0  0  0  0  0  0  0  0
    8.4701   16.2256   21.8554 H    0  0  0  0  0  0  0  0  0  0  0  0
 16 17  1  0  0  0  0
  7 16  2  0  0  0  0
  6  7  1  0  0  0  0
  5  6  2  0  0  0  0
  4  5  1  0  0  0  0
  3  4  2  0  0  0  0
  2  3  1  0  0  0  0
  1  2  1  0  0  0  0
 29  1  1  0  0  0  0
 30  1  1  0  0  0  0
 31  1  1  0  0  0  0
 32  5  1  0  0  0  0
  8  7  1  0  0  0  0
  9  8  1  0  0  0  0
 10  9  1  0  0  0  0
 33  9  1  0  0  0  0
 34  9  1  0  0  0  0
 11 10  1  0  0  0  0
 35 10  1  0  0  0  0
 36 10  1  0  0  0  0
 12 11  1  0  0  0  0
 37 11  1  0  0  0  0
 38 11  1  0  0  0  0
 13 12  1  0  0  0  0
 39 12  1  0  0  0  0
 14 13  1  0  0  0  0
 15 13  1  0  0  0  0
 40 13  1  0  0  0  0
 41 14  1  0  0  0  0
 42 14  1  0  0  0  0
 43 14  1  0  0  0  0
 44 15  1  0  0  0  0
 45 15  1  0  0  0  0
 46 15  1  0  0  0  0
 18 17  1  0  0  0  0
 47 17  1  0  0  0  0
 48 17  1  0  0  0  0
 19 18  2  0  0  0  0
 20 18  1  0  0  0  0
 21 20  1  0  0  0  0
 22 21  1  0  0  0  0
 49 21  1  0  0  0  0
 50 21  1  0  0  0  0
 23 22  1  0  0  0  0
 51 22  1  0  0  0  0
 52 22  1  0  0  0  0
 24 23  1  0  0  0  0
 53 23  1  0  0  0  0
 54 23  1  0  0  0  0
 25 24  1  0  0  0  0
 28 24  1  0  0  0  0
 55 24  1  0  0  0  0
 26 25  1  0  0  0  0
 27 25  2  0  0  0  0
 56 26  1  0  0  0  0
 57 26  1  0  0  0  0
 58 28  1  0  0  0  0
 59 28  1  0  0  0  0
 12  8  1  0  0  0  0
 16  3  1  0  0  0  0
 28 20  1  0  0  0  0
M  END
>  <FittedScore>
-36.71

$$$$
