A71EV2A-x7135a_lowest-energy
  FITTED

 59 61     0  0  0  0  0  0  0999 V2000
    9.7035    8.6634   23.5166 C    0  0  0  0  0  0  0  0  0  0  0  0
    9.4483   10.4419   23.8550 S    0  0  0  0  0  0  0  0  0  0  0  0
    8.0350   10.5542   24.9501 C    0  0  0  0  0  0  0  0  0  0  0  0
    7.3875    9.3930   25.2546 N    0  0  0  0  0  0  0  0  0  0  0  0
    6.3280    9.4575   26.0993 C    0  0  0  0  0  0  0  0  0  0  0  0
    5.8445   10.5973   26.6500 N    0  0  0  0  0  0  0  0  0  0  0  0
    6.4533   11.7700   26.3348 C    0  0  0  0  0  0  0  0  0  0  0  0
    5.8722   12.8837   26.9025 N    0  0  0  0  0  0  0  0  0  0  0  0
    6.3421   13.4244   28.1815 C    0  0  0  0  0  0  0  0  0  0  0  0
    5.9344   14.9066   28.1856 C    0  0  0  0  0  0  0  0  0  0  0  0
    5.3077   15.1976   26.8104 C    0  0  0  0  0  0  0  0  0  0  0  0
    5.0299   13.8246   26.1428 C    0  0  0  0  0  0  0  0  0  0  0  0
    3.5235   13.3576   26.1097 C    0  0  0  0  0  0  0  0  0  0  0  0
    2.6591   14.2286   25.1545 C    0  0  0  0  0  0  0  0  0  0  0  0
    2.8375   13.2081   27.5010 C    0  0  0  0  0  0  0  0  0  0  0  0
    7.5979   11.8019   25.4834 C    0  0  0  0  0  0  0  0  0  0  0  0
    8.3454   13.1163   25.1616 C    0  0  0  0  0  0  0  0  0  0  0  0
    8.0682   13.7123   23.7703 C    0  0  0  0  0  0  0  0  0  0  0  0
    7.2583   13.1692   23.0332 O    0  0  0  0  0  0  0  0  0  0  0  0
    8.8364   14.7807   23.3465 N    0  0  0  0  0  0  0  0  0  0  0  0
    9.8478   15.5468   24.1602 C    0  0  0  0  0  0  0  0  0  0  0  0
   11.2937   15.4002   23.6084 C    0  0  0  0  0  0  0  0  0  0  0  0
   11.3758   15.8050   22.1099 C    0  0  0  0  0  0  0  0  0  0  0  0
   10.2603   15.1225   21.2567 C    0  0  0  0  0  0  0  0  0  0  0  0
   10.2821   15.6461   19.8177 C    0  0  0  0  0  0  0  0  0  0  0  0
   10.8264   14.8259   18.8971 N    0  0  0  0  0  0  0  0  0  0  0  0
    9.7775   16.6985   19.4708 O    0  0  0  0  0  0  0  0  0  0  0  0
    8.8541   15.2716   21.9287 C    0  0  0  0  0  0  0  0  0  0  0  0
    9.8630    8.1264   24.4520 H    0  0  0  0  0  0  0  0  0  0  0  0
   10.5874    8.5388   22.8874 H    0  0  0  0  0  0  0  0  0  0  0  0
    8.8375    8.2489   22.9962 H    0  0  0  0  0  0  0  0  0  0  0  0
    5.8243    8.5283   26.3461 H    0  0  0  0  0  0  0  0  0  0  0  0
    7.4262   13.3333   28.2918 H    0  0  0  0  0  0  0  0  0  0  0  0
    5.8821   12.8995   29.0231 H    0  0  0  0  0  0  0  0  0  0  0  0
    6.8014   15.5503   28.3596 H    0  0  0  0  0  0  0  0  0  0  0  0
    5.2104   15.1013   28.9827 H    0  0  0  0  0  0  0  0  0  0  0  0
    6.0151   15.7649   26.1989 H    0  0  0  0  0  0  0  0  0  0  0  0
    4.4139   15.8166   26.9201 H    0  0  0  0  0  0  0  0  0  0  0  0
    5.3780   13.8851   25.1075 H    0  0  0  0  0  0  0  0  0  0  0  0
    3.5217   12.3572   25.6651 H    0  0  0  0  0  0  0  0  0  0  0  0
    2.5345   15.2450   25.5338 H    0  0  0  0  0  0  0  0  0  0  0  0
    1.6639   13.7963   25.0206 H    0  0  0  0  0  0  0  0  0  0  0  0
    3.1159   14.2969   24.1642 H    0  0  0  0  0  0  0  0  0  0  0  0
    1.8024   12.8790   27.3890 H    0  0  0  0  0  0  0  0  0  0  0  0
    2.8289   14.1488   28.0563 H    0  0  0  0  0  0  0  0  0  0  0  0
    3.3386   12.4563   28.1147 H    0  0  0  0  0  0  0  0  0  0  0  0
    9.4162   12.9335   25.2788 H    0  0  0  0  0  0  0  0  0  0  0  0
    8.1264   13.8788   25.9109 H    0  0  0  0  0  0  0  0  0  0  0  0
    9.8610   15.2768   25.2158 H    0  0  0  0  0  0  0  0  0  0  0  0
    9.5738   16.6091   24.1619 H    0  0  0  0  0  0  0  0  0  0  0  0
   11.6330   14.3661   23.7288 H    0  0  0  0  0  0  0  0  0  0  0  0
   11.9756   16.0260   24.1919 H    0  0  0  0  0  0  0  0  0  0  0  0
   12.3580   15.5213   21.7223 H    0  0  0  0  0  0  0  0  0  0  0  0
   11.3050   16.8934   22.0280 H    0  0  0  0  0  0  0  0  0  0  0  0
   10.4815   14.0476   21.2472 H    0  0  0  0  0  0  0  0  0  0  0  0
   11.0787   13.8716   19.1569 H    0  0  0  0  0  0  0  0  0  0  0  0
   10.8056   15.0874   17.9159 H    0  0  0  0  0  0  0  0  0  0  0  0
    8.1200   14.7615   21.3001 H    0  0  0  0  0  0  0  0  0  0  0  0
    8.5461   16.3222   21.9210 H    0  0  0  0  0  0  0  0  0  0  0  0
 16 17  1  0  0  0  0
  7 16  2  0  0  0  0
  6  7  1  0  0  0  0
  5  6  2  0  0  0  0
  4  5  1  0  0  0  0
  3  4  2  0  0  0  0
  2  3  1  0  0  0  0
  1  2  1  0  0  0  0
 29  1  1  0  0  0  0
 30  1  1  0  0  0  0
 31  1  1  0  0  0  0
 32  5  1  0  0  0  0
  8  7  1  0  0  0  0
  9  8  1  0  0  0  0
 10  9  1  0  0  0  0
 33  9  1  0  0  0  0
 34  9  1  0  0  0  0
 11 10  1  0  0  0  0
 35 10  1  0  0  0  0
 36 10  1  0  0  0  0
 12 11  1  0  0  0  0
 37 11  1  0  0  0  0
 38 11  1  0  0  0  0
 13 12  1  0  0  0  0
 39 12  1  0  0  0  0
 14 13  1  0  0  0  0
 15 13  1  0  0  0  0
 40 13  1  0  0  0  0
 41 14  1  0  0  0  0
 42 14  1  0  0  0  0
 43 14  1  0  0  0  0
 44 15  1  0  0  0  0
 45 15  1  0  0  0  0
 46 15  1  0  0  0  0
 18 17  1  0  0  0  0
 47 17  1  0  0  0  0
 48 17  1  0  0  0  0
 19 18  2  0  0  0  0
 20 18  1  0  0  0  0
 21 20  1  0  0  0  0
 22 21  1  0  0  0  0
 49 21  1  0  0  0  0
 50 21  1  0  0  0  0
 23 22  1  0  0  0  0
 51 22  1  0  0  0  0
 52 22  1  0  0  0  0
 24 23  1  0  0  0  0
 53 23  1  0  0  0  0
 54 23  1  0  0  0  0
 25 24  1  0  0  0  0
 28 24  1  0  0  0  0
 55 24  1  0  0  0  0
 26 25  1  0  0  0  0
 27 25  2  0  0  0  0
 56 26  1  0  0  0  0
 57 26  1  0  0  0  0
 58 28  1  0  0  0  0
 59 28  1  0  0  0  0
 12  8  1  0  0  0  0
 16  3  1  0  0  0  0
 28 20  1  0  0  0  0
M  END
>  <FittedScore>
-35.85

$$$$
