A71EV2A-x3634a_best-RMSD
  FITTED

 40 41     0  0  0  0  0  0  0999 V2000
    9.6400   16.7309   19.0028 O    0  0  0  0  0  0  0  0  0  0  0  0
   10.0712   15.7560   19.5746 C    0  0  0  0  0  0  0  0  0  0  0  0
   10.6878   14.8014   18.8540 N    0  0  0  0  0  0  0  0  0  0  0  0
    9.7997   15.5234   21.0632 C    0  0  0  0  0  0  0  0  0  0  0  0
    8.6611   14.5411   21.3611 C    0  0  0  0  0  0  0  0  0  0  0  0
   10.9603   15.0107   21.9449 C    0  0  0  0  0  0  0  0  0  0  0  0
   11.9988   16.1069   22.2797 C    0  0  0  0  0  0  0  0  0  0  0  0
   10.2173   14.4415   23.1794 C    0  0  0  0  0  0  0  0  0  0  0  0
    8.8356   14.1026   22.7572 N    0  0  0  0  0  0  0  0  0  0  0  0
    7.8581   13.4683   23.4803 C    0  0  0  0  0  0  0  0  0  0  0  0
    6.8422   13.0783   22.9311 O    0  0  0  0  0  0  0  0  0  0  0  0
    8.0622   13.1985   24.9795 C    0  0  0  0  0  0  0  0  0  0  0  0
    7.2998   11.9633   25.4908 C    0  0  0  0  0  0  0  0  0  0  0  0
    7.4820   10.6802   24.9142 C    0  0  0  0  0  0  0  0  0  0  0  0
    8.2715   10.4913   23.7995 O    0  0  0  0  0  0  0  0  0  0  0  0
    9.6717   10.2245   23.8942 C    0  0  0  0  0  0  0  0  0  0  0  0
    6.3783   12.1065   26.5493 C    0  0  0  0  0  0  0  0  0  0  0  0
    5.6778   10.9974   27.0437 C    0  0  0  0  0  0  0  0  0  0  0  0
    5.8825    9.7341   26.4753 C    0  0  0  0  0  0  0  0  0  0  0  0
    6.7743    9.5774   25.4075 C    0  0  0  0  0  0  0  0  0  0  0  0
   10.7477   14.9061   17.8459 H    0  0  0  0  0  0  0  0  0  0  0  0
   10.9163   13.9103   19.2767 H    0  0  0  0  0  0  0  0  0  0  0  0
    9.4720   16.4883   21.4723 H    0  0  0  0  0  0  0  0  0  0  0  0
    7.6946   15.0313   21.2176 H    0  0  0  0  0  0  0  0  0  0  0  0
    8.6970   13.6678   20.7039 H    0  0  0  0  0  0  0  0  0  0  0  0
   11.4784   14.1832   21.4493 H    0  0  0  0  0  0  0  0  0  0  0  0
   12.7782   15.6998   22.9279 H    0  0  0  0  0  0  0  0  0  0  0  0
   11.5457   16.9621   22.7904 H    0  0  0  0  0  0  0  0  0  0  0  0
   12.4799   16.4780   21.3695 H    0  0  0  0  0  0  0  0  0  0  0  0
   10.1805   15.1657   24.0005 H    0  0  0  0  0  0  0  0  0  0  0  0
   10.7351   13.5472   23.5378 H    0  0  0  0  0  0  0  0  0  0  0  0
    9.1096   13.0461   25.2426 H    0  0  0  0  0  0  0  0  0  0  0  0
    7.7559   14.0968   25.5228 H    0  0  0  0  0  0  0  0  0  0  0  0
    9.8394    9.2636   24.3872 H    0  0  0  0  0  0  0  0  0  0  0  0
   10.1830   11.0130   24.4492 H    0  0  0  0  0  0  0  0  0  0  0  0
   10.0886   10.1730   22.8886 H    0  0  0  0  0  0  0  0  0  0  0  0
    6.2042   13.0811   27.0020 H    0  0  0  0  0  0  0  0  0  0  0  0
    4.9754   11.1155   27.8656 H    0  0  0  0  0  0  0  0  0  0  0  0
    5.3374    8.8716   26.8563 H    0  0  0  0  0  0  0  0  0  0  0  0
    6.9028    8.5989   24.9522 H    0  0  0  0  0  0  0  0  0  0  0  0
  9 10  1  0  0  0  0
  5  9  1  0  0  0  0
  4  5  1  0  0  0  0
  2  4  1  0  0  0  0
  1  2  2  0  0  0  0
  3  2  1  0  0  0  0
 21  3  1  0  0  0  0
 22  3  1  0  0  0  0
 23  4  1  0  0  0  0
 24  5  1  0  0  0  0
 25  5  1  0  0  0  0
  6  4  1  0  0  0  0
  7  6  1  0  0  0  0
 26  6  1  0  0  0  0
 27  7  1  0  0  0  0
 28  7  1  0  0  0  0
 29  7  1  0  0  0  0
  8  6  1  0  0  0  0
 30  8  1  0  0  0  0
 31  8  1  0  0  0  0
 11 10  2  0  0  0  0
 12 10  1  0  0  0  0
 32 12  1  0  0  0  0
 33 12  1  0  0  0  0
 13 12  1  0  0  0  0
 14 13  1  0  0  0  0
 20 14  2  0  0  0  0
 15 14  1  0  0  0  0
 16 15  1  0  0  0  0
 34 16  1  0  0  0  0
 35 16  1  0  0  0  0
 36 16  1  0  0  0  0
 17 13  2  0  0  0  0
 37 17  1  0  0  0  0
 18 17  1  0  0  0  0
 38 18  1  0  0  0  0
 19 18  2  0  0  0  0
 39 19  1  0  0  0  0
 40 20  1  0  0  0  0
  9  8  1  0  0  0  0
 20 19  1  0  0  0  0
M  END
>  <FittedScore>
-35.21

$$$$
