A71EV2A-x3634a_lowest-energy
  FITTED

 40 41     0  0  0  0  0  0  0999 V2000
    9.4825   16.6962   18.9685 O    0  0  0  0  0  0  0  0  0  0  0  0
    9.9671   15.7453   19.5341 C    0  0  0  0  0  0  0  0  0  0  0  0
   10.5833   14.7871   18.8167 N    0  0  0  0  0  0  0  0  0  0  0  0
    9.7448   15.5330   21.0251 C    0  0  0  0  0  0  0  0  0  0  0  0
    8.5873   14.5868   21.3600 C    0  0  0  0  0  0  0  0  0  0  0  0
   10.9281   14.9997   21.8536 C    0  0  0  0  0  0  0  0  0  0  0  0
   12.0012   16.0781   22.1375 C    0  0  0  0  0  0  0  0  0  0  0  0
   10.2175   14.4401   23.1089 C    0  0  0  0  0  0  0  0  0  0  0  0
    8.8278   14.0743   22.7227 N    0  0  0  0  0  0  0  0  0  0  0  0
    7.8996   13.3738   23.4489 C    0  0  0  0  0  0  0  0  0  0  0  0
    6.8503   13.0175   22.9393 O    0  0  0  0  0  0  0  0  0  0  0  0
    8.1898   13.0446   24.9173 C    0  0  0  0  0  0  0  0  0  0  0  0
    7.3437   11.8977   25.4896 C    0  0  0  0  0  0  0  0  0  0  0  0
    7.4073   10.5595   25.0068 C    0  0  0  0  0  0  0  0  0  0  0  0
    8.1246   10.1509   23.8942 O    0  0  0  0  0  0  0  0  0  0  0  0
    9.5473   10.2810   23.7243 C    0  0  0  0  0  0  0  0  0  0  0  0
    6.4619   12.1950   26.5481 C    0  0  0  0  0  0  0  0  0  0  0  0
    5.6973   11.1905   27.1528 C    0  0  0  0  0  0  0  0  0  0  0  0
    5.7919    9.8713   26.6977 C    0  0  0  0  0  0  0  0  0  0  0  0
    6.6336    9.5641   25.6212 C    0  0  0  0  0  0  0  0  0  0  0  0
   10.6316   14.8694   17.8076 H    0  0  0  0  0  0  0  0  0  0  0  0
   10.8649   13.9198   19.2582 H    0  0  0  0  0  0  0  0  0  0  0  0
    9.4626   16.5080   21.4415 H    0  0  0  0  0  0  0  0  0  0  0  0
    7.6377   15.1301   21.3043 H    0  0  0  0  0  0  0  0  0  0  0  0
    8.5384   13.7476   20.6590 H    0  0  0  0  0  0  0  0  0  0  0  0
   11.4123   14.1654   21.3351 H    0  0  0  0  0  0  0  0  0  0  0  0
   12.8517   15.6426   22.6670 H    0  0  0  0  0  0  0  0  0  0  0  0
   11.6069   16.9009   22.7396 H    0  0  0  0  0  0  0  0  0  0  0  0
   12.3815   16.5038   21.2042 H    0  0  0  0  0  0  0  0  0  0  0  0
   10.1846   15.1816   23.9123 H    0  0  0  0  0  0  0  0  0  0  0  0
   10.7687   13.5672   23.4676 H    0  0  0  0  0  0  0  0  0  0  0  0
    9.2333   12.7739   25.0814 H    0  0  0  0  0  0  0  0  0  0  0  0
    8.0478   13.9611   25.4969 H    0  0  0  0  0  0  0  0  0  0  0  0
    9.8169   11.2622   23.3411 H    0  0  0  0  0  0  0  0  0  0  0  0
    9.8678    9.5522   22.9797 H    0  0  0  0  0  0  0  0  0  0  0  0
   10.0740   10.0823   24.6619 H    0  0  0  0  0  0  0  0  0  0  0  0
    6.3800   13.2122   26.9263 H    0  0  0  0  0  0  0  0  0  0  0  0
    5.0435   11.4374   27.9837 H    0  0  0  0  0  0  0  0  0  0  0  0
    5.2122    9.0857   27.1777 H    0  0  0  0  0  0  0  0  0  0  0  0
    6.6874    8.5378   25.2628 H    0  0  0  0  0  0  0  0  0  0  0  0
  9 10  1  0  0  0  0
  5  9  1  0  0  0  0
  4  5  1  0  0  0  0
  2  4  1  0  0  0  0
  1  2  2  0  0  0  0
  3  2  1  0  0  0  0
 21  3  1  0  0  0  0
 22  3  1  0  0  0  0
 23  4  1  0  0  0  0
 24  5  1  0  0  0  0
 25  5  1  0  0  0  0
  6  4  1  0  0  0  0
  7  6  1  0  0  0  0
 26  6  1  0  0  0  0
 27  7  1  0  0  0  0
 28  7  1  0  0  0  0
 29  7  1  0  0  0  0
  8  6  1  0  0  0  0
 30  8  1  0  0  0  0
 31  8  1  0  0  0  0
 11 10  2  0  0  0  0
 12 10  1  0  0  0  0
 32 12  1  0  0  0  0
 33 12  1  0  0  0  0
 13 12  1  0  0  0  0
 14 13  1  0  0  0  0
 20 14  2  0  0  0  0
 15 14  1  0  0  0  0
 16 15  1  0  0  0  0
 34 16  1  0  0  0  0
 35 16  1  0  0  0  0
 36 16  1  0  0  0  0
 17 13  2  0  0  0  0
 37 17  1  0  0  0  0
 18 17  1  0  0  0  0
 38 18  1  0  0  0  0
 19 18  2  0  0  0  0
 39 19  1  0  0  0  0
 40 20  1  0  0  0  0
  9  8  1  0  0  0  0
 20 19  1  0  0  0  0
M  END
>  <FittedScore>
-35.92

$$$$
