A71EV2A-x4943a_best-RMSD
  FITTED

 41 43     0  0  0  0  0  0  0999 V2000
    6.6388   13.2431   22.3678 O    0  0  0  0  0  0  0  0  0  0  0  0
    7.3473   13.7564   23.2198 C    0  0  0  0  0  0  0  0  0  0  0  0
    8.0984   14.8773   22.9248 N    0  0  0  0  0  0  0  0  0  0  0  0
    8.8603   15.7433   23.8868 C    0  0  0  0  0  0  0  0  0  0  0  0
   10.3881   15.7230   23.6036 C    0  0  0  0  0  0  0  0  0  0  0  0
   10.6836   16.1679   22.1414 C    0  0  0  0  0  0  0  0  0  0  0  0
    8.3174   15.3726   21.5237 C    0  0  0  0  0  0  0  0  0  0  0  0
    9.8250   15.3555   21.1256 C    0  0  0  0  0  0  0  0  0  0  0  0
   10.0401   15.8306   19.6866 C    0  0  0  0  0  0  0  0  0  0  0  0
    9.7018   16.9223   19.2710 O    0  0  0  0  0  0  0  0  0  0  0  0
   10.5136   14.9010   18.8352 N    0  0  0  0  0  0  0  0  0  0  0  0
    7.4483   13.0458   24.5914 C    0  0  0  0  0  0  0  0  0  0  0  0
    7.8818   11.5782   24.3928 C    0  0  0  0  0  0  0  0  0  0  0  0
    8.9968   11.3156   23.5653 C    0  0  0  0  0  0  0  0  0  0  0  0
    9.3484   10.0030   23.2347 C    0  0  0  0  0  0  0  0  0  0  0  0
    8.6124    8.9310   23.7435 C    0  0  0  0  0  0  0  0  0  0  0  0
    7.5534    9.1752   24.6261 C    0  0  0  0  0  0  0  0  0  0  0  0
    7.2031   10.4833   24.9849 C    0  0  0  0  0  0  0  0  0  0  0  0
    5.9075   10.6659   26.1934 S    0  0  0  0  0  0  0  0  0  0  0  0
    5.9353   12.4397   26.5997 C    0  0  0  0  0  0  0  0  0  0  0  0
    6.1187   13.3306   25.3613 C    0  0  0  0  0  0  0  0  0  0  0  0
    8.5027   16.7766   23.7940 H    0  0  0  0  0  0  0  0  0  0  0  0
    8.6791   15.5166   24.9367 H    0  0  0  0  0  0  0  0  0  0  0  0
   10.9048   16.3869   24.3010 H    0  0  0  0  0  0  0  0  0  0  0  0
   10.7786   14.7135   23.7691 H    0  0  0  0  0  0  0  0  0  0  0  0
   10.4725   17.2355   22.0433 H    0  0  0  0  0  0  0  0  0  0  0  0
   11.7471   16.0336   21.9227 H    0  0  0  0  0  0  0  0  0  0  0  0
    7.9158   16.3888   21.4381 H    0  0  0  0  0  0  0  0  0  0  0  0
    7.7733   14.7886   20.7773 H    0  0  0  0  0  0  0  0  0  0  0  0
   10.1498   14.3108   21.2049 H    0  0  0  0  0  0  0  0  0  0  0  0
   10.5787   15.1114   17.8479 H    0  0  0  0  0  0  0  0  0  0  0  0
   10.6532   13.9452   19.1524 H    0  0  0  0  0  0  0  0  0  0  0  0
    8.2493   13.4408   25.2147 H    0  0  0  0  0  0  0  0  0  0  0  0
    9.5807   12.1316   23.1400 H    0  0  0  0  0  0  0  0  0  0  0  0
   10.1863    9.8271   22.5651 H    0  0  0  0  0  0  0  0  0  0  0  0
    8.8668    7.9121   23.4641 H    0  0  0  0  0  0  0  0  0  0  0  0
    7.0037    8.3315   25.0340 H    0  0  0  0  0  0  0  0  0  0  0  0
    4.9962   12.6834   27.0988 H    0  0  0  0  0  0  0  0  0  0  0  0
    6.7467   12.6173   27.3096 H    0  0  0  0  0  0  0  0  0  0  0  0
    5.2551   13.1883   24.7051 H    0  0  0  0  0  0  0  0  0  0  0  0
    6.1046   14.3802   25.6699 H    0  0  0  0  0  0  0  0  0  0  0  0
  2  1  2  0  0  0  0
  3  2  1  0  0  0  0
  4  3  1  0  0  0  0
 22  4  1  0  0  0  0
 23  4  1  0  0  0  0
  5  4  1  0  0  0  0
 24  5  1  0  0  0  0
 25  5  1  0  0  0  0
  6  5  1  0  0  0  0
 26  6  1  0  0  0  0
 27  6  1  0  0  0  0
  7  3  1  0  0  0  0
 28  7  1  0  0  0  0
 29  7  1  0  0  0  0
  8  6  1  0  0  0  0
  9  8  1  0  0  0  0
 30  8  1  0  0  0  0
 10  9  2  0  0  0  0
 11  9  1  0  0  0  0
 31 11  1  0  0  0  0
 32 11  1  0  0  0  0
 12  2  1  0  0  0  0
 21 12  1  0  0  0  0
 33 12  1  0  0  0  0
 13 12  1  0  0  0  0
 14 13  1  0  0  0  0
 34 14  1  0  0  0  0
 15 14  2  0  0  0  0
 35 15  1  0  0  0  0
 16 15  1  0  0  0  0
 36 16  1  0  0  0  0
 17 16  2  0  0  0  0
 37 17  1  0  0  0  0
 18 17  1  0  0  0  0
 19 18  1  0  0  0  0
 20 19  1  0  0  0  0
 38 20  1  0  0  0  0
 39 20  1  0  0  0  0
 40 21  1  0  0  0  0
 41 21  1  0  0  0  0
  8  7  1  0  0  0  0
 18 13  2  0  0  0  0
 21 20  1  0  0  0  0
M  END
>  <FittedScore>
-37.05

$$$$
