A71EV2A-x4304a_best-RMSD
  FITTED

 47 48     0  0  0  0  0  0  0999 V2000
   10.1460   16.8123   19.1873 O    0  0  0  0  0  0  0  0  0  0  0  0
   10.5066   15.7028   19.5284 C    0  0  0  0  0  0  0  0  0  0  0  0
   10.6570   14.7293   18.6182 N    0  0  0  0  0  0  0  0  0  0  0  0
   10.4411   15.2238   20.9791 C    0  0  0  0  0  0  0  0  0  0  0  0
   11.3274   16.0792   21.9304 C    0  0  0  0  0  0  0  0  0  0  0  0
   11.2349   15.5323   23.3799 C    0  0  0  0  0  0  0  0  0  0  0  0
    9.7618   15.4164   23.8493 C    0  0  0  0  0  0  0  0  0  0  0  0
    8.9687   15.1708   21.5008 C    0  0  0  0  0  0  0  0  0  0  0  0
    8.8560   14.6560   22.9024 N    0  0  0  0  0  0  0  0  0  0  0  0
    7.9365   13.6979   23.2724 C    0  0  0  0  0  0  0  0  0  0  0  0
    6.9955   13.3319   22.5837 O    0  0  0  0  0  0  0  0  0  0  0  0
    8.2656   13.0209   24.4025 N    0  0  0  0  0  0  0  0  0  0  0  0
    7.5755   11.9149   24.9899 C    0  0  0  0  0  0  0  0  0  0  0  0
    7.9832   10.5866   24.7338 C    0  0  0  0  0  0  0  0  0  0  0  0
    9.0667   10.3892   23.8817 O    0  0  0  0  0  0  0  0  0  0  0  0
    9.7606    9.1463   23.6476 C    0  0  0  0  0  0  0  0  0  0  0  0
    6.4758   12.1721   25.8201 C    0  0  0  0  0  0  0  0  0  0  0  0
    5.7543   11.1025   26.3706 C    0  0  0  0  0  0  0  0  0  0  0  0
    6.1383    9.7824   26.1053 C    0  0  0  0  0  0  0  0  0  0  0  0
    7.2495    9.5237   25.3011 C    0  0  0  0  0  0  0  0  0  0  0  0
    4.6862   11.3604   27.1747 N    0  0  0  0  0  0  0  0  0  0  0  0
    4.8274   11.1038   28.8411 S    0  0  0  0  0  0  0  0  0  0  0  0
    4.8112   12.3905   29.4612 O    0  0  0  0  0  0  0  0  0  0  0  0
    5.8686   10.1621   29.1588 O    0  0  0  0  0  0  0  0  0  0  0  0
    3.2891   10.2931   29.1657 C    0  0  0  0  0  0  0  0  0  0  0  0
   10.5804   14.9401   17.6215 H    0  0  0  0  0  0  0  0  0  0  0  0
   10.6926   13.7591   18.9323 H    0  0  0  0  0  0  0  0  0  0  0  0
   10.8334   14.1962   21.0285 H    0  0  0  0  0  0  0  0  0  0  0  0
   12.3666   16.0426   21.6008 H    0  0  0  0  0  0  0  0  0  0  0  0
   11.0162   17.1277   21.9114 H    0  0  0  0  0  0  0  0  0  0  0  0
   11.7149   14.5499   23.4425 H    0  0  0  0  0  0  0  0  0  0  0  0
   11.7834   16.1872   24.0576 H    0  0  0  0  0  0  0  0  0  0  0  0
    9.7967   14.9842   24.8528 H    0  0  0  0  0  0  0  0  0  0  0  0
    9.3464   16.4180   23.9897 H    0  0  0  0  0  0  0  0  0  0  0  0
    8.3851   14.5609   20.8064 H    0  0  0  0  0  0  0  0  0  0  0  0
    8.5323   16.1726   21.4650 H    0  0  0  0  0  0  0  0  0  0  0  0
    9.2211   13.1049   24.7193 H    0  0  0  0  0  0  0  0  0  0  0  0
   10.3075    8.8466   24.5497 H    0  0  0  0  0  0  0  0  0  0  0  0
   10.4801    9.3075   22.8392 H    0  0  0  0  0  0  0  0  0  0  0  0
    9.0753    8.3581   23.3401 H    0  0  0  0  0  0  0  0  0  0  0  0
    6.1854   13.1951   26.0480 H    0  0  0  0  0  0  0  0  0  0  0  0
    5.5717    8.9537   26.5270 H    0  0  0  0  0  0  0  0  0  0  0  0
    7.5226    8.4815   25.1343 H    0  0  0  0  0  0  0  0  0  0  0  0
    4.3134   12.2911   27.0687 H    0  0  0  0  0  0  0  0  0  0  0  0
    3.1448   10.1991   30.2427 H    0  0  0  0  0  0  0  0  0  0  0  0
    3.2788    9.2941   28.7165 H    0  0  0  0  0  0  0  0  0  0  0  0
    2.4666   10.8835   28.7582 H    0  0  0  0  0  0  0  0  0  0  0  0
 10 12  1  0  0  0  0
  9 10  1  0  0  0  0
  7  9  1  0  0  0  0
  6  7  1  0  0  0  0
  5  6  1  0  0  0  0
  4  5  1  0  0  0  0
  2  4  1  0  0  0  0
  1  2  2  0  0  0  0
  3  2  1  0  0  0  0
 26  3  1  0  0  0  0
 27  3  1  0  0  0  0
 28  4  1  0  0  0  0
 29  5  1  0  0  0  0
 30  5  1  0  0  0  0
 31  6  1  0  0  0  0
 32  6  1  0  0  0  0
 33  7  1  0  0  0  0
 34  7  1  0  0  0  0
  8  4  1  0  0  0  0
 35  8  1  0  0  0  0
 36  8  1  0  0  0  0
 11 10  2  0  0  0  0
 37 12  1  0  0  0  0
 13 12  1  0  0  0  0
 14 13  1  0  0  0  0
 20 14  2  0  0  0  0
 15 14  1  0  0  0  0
 16 15  1  0  0  0  0
 38 16  1  0  0  0  0
 39 16  1  0  0  0  0
 40 16  1  0  0  0  0
 17 13  2  0  0  0  0
 41 17  1  0  0  0  0
 18 17  1  0  0  0  0
 19 18  2  0  0  0  0
 42 19  1  0  0  0  0
 43 20  1  0  0  0  0
 21 18  1  0  0  0  0
 44 21  1  0  0  0  0
 22 21  1  0  0  0  0
 23 22  2  0  0  0  0
 24 22  2  0  0  0  0
 25 22  1  0  0  0  0
 45 25  1  0  0  0  0
 46 25  1  0  0  0  0
 47 25  1  0  0  0  0
  9  8  1  0  0  0  0
 20 19  1  0  0  0  0
M  END
>  <FittedScore>
-30.80

$$$$
