A71EV2A-x4304a_lowest-energy
  FITTED

 47 48     0  0  0  0  0  0  0999 V2000
    9.8943   16.8275   19.2966 O    0  0  0  0  0  0  0  0  0  0  0  0
   10.3368   15.7441   19.6019 C    0  0  0  0  0  0  0  0  0  0  0  0
   10.6661   14.8552   18.6463 N    0  0  0  0  0  0  0  0  0  0  0  0
   10.3164   15.2219   21.0426 C    0  0  0  0  0  0  0  0  0  0  0  0
   11.4476   15.8523   21.9102 C    0  0  0  0  0  0  0  0  0  0  0  0
   11.3753   15.3989   23.4042 C    0  0  0  0  0  0  0  0  0  0  0  0
    9.9442   15.5498   23.9915 C    0  0  0  0  0  0  0  0  0  0  0  0
    8.9426   15.4438   21.7384 C    0  0  0  0  0  0  0  0  0  0  0  0
    8.9019   14.8790   23.1242 N    0  0  0  0  0  0  0  0  0  0  0  0
    8.0906   13.8099   23.4569 C    0  0  0  0  0  0  0  0  0  0  0  0
    7.3299   13.2762   22.6661 O    0  0  0  0  0  0  0  0  0  0  0  0
    8.1910   13.3475   24.7308 N    0  0  0  0  0  0  0  0  0  0  0  0
    7.6366   12.1373   25.2595 C    0  0  0  0  0  0  0  0  0  0  0  0
    7.9045   10.8673   24.6996 C    0  0  0  0  0  0  0  0  0  0  0  0
    8.8262   10.7567   23.6691 O    0  0  0  0  0  0  0  0  0  0  0  0
    9.5715    9.5588   23.3691 C    0  0  0  0  0  0  0  0  0  0  0  0
    6.7838   12.2471   26.3666 C    0  0  0  0  0  0  0  0  0  0  0  0
    6.1328   11.1151   26.8780 C    0  0  0  0  0  0  0  0  0  0  0  0
    6.3402    9.8611   26.2698 C    0  0  0  0  0  0  0  0  0  0  0  0
    7.2282    9.7422   25.2057 C    0  0  0  0  0  0  0  0  0  0  0  0
    5.3107   11.3120   27.9669 N    0  0  0  0  0  0  0  0  0  0  0  0
    4.5451   10.0820   28.8544 S    0  0  0  0  0  0  0  0  0  0  0  0
    5.5613    9.2712   29.4673 O    0  0  0  0  0  0  0  0  0  0  0  0
    3.5273    9.4685   28.0418 O    0  0  0  0  0  0  0  0  0  0  0  0
    3.7158   11.0250   30.1056 C    0  0  0  0  0  0  0  0  0  0  0  0
   10.5638   15.0904   17.6552 H    0  0  0  0  0  0  0  0  0  0  0  0
   10.8863   13.9030   18.9186 H    0  0  0  0  0  0  0  0  0  0  0  0
   10.4895   14.1429   21.0331 H    0  0  0  0  0  0  0  0  0  0  0  0
   12.4224   15.5856   21.4961 H    0  0  0  0  0  0  0  0  0  0  0  0
   11.3760   16.9431   21.8735 H    0  0  0  0  0  0  0  0  0  0  0  0
   11.6823   14.3517   23.5010 H    0  0  0  0  0  0  0  0  0  0  0  0
   12.0741   15.9850   24.0072 H    0  0  0  0  0  0  0  0  0  0  0  0
    9.9670   15.1724   25.0154 H    0  0  0  0  0  0  0  0  0  0  0  0
    9.6961   16.6078   24.1085 H    0  0  0  0  0  0  0  0  0  0  0  0
    8.1617   15.0420   21.0974 H    0  0  0  0  0  0  0  0  0  0  0  0
    8.7271   16.5178   21.7992 H    0  0  0  0  0  0  0  0  0  0  0  0
    8.6308   13.9355   25.4237 H    0  0  0  0  0  0  0  0  0  0  0  0
   10.3066    9.7927   22.5945 H    0  0  0  0  0  0  0  0  0  0  0  0
    8.9162    8.7758   22.9757 H    0  0  0  0  0  0  0  0  0  0  0  0
   10.0942    9.2199   24.2638 H    0  0  0  0  0  0  0  0  0  0  0  0
    6.6068   13.2294   26.8038 H    0  0  0  0  0  0  0  0  0  0  0  0
    5.8328    8.9588   26.6044 H    0  0  0  0  0  0  0  0  0  0  0  0
    7.3786    8.7531   24.7791 H    0  0  0  0  0  0  0  0  0  0  0  0
    5.5670   12.0788   28.5813 H    0  0  0  0  0  0  0  0  0  0  0  0
    4.4543   11.5839   30.6804 H    0  0  0  0  0  0  0  0  0  0  0  0
    3.1754   10.3465   30.7659 H    0  0  0  0  0  0  0  0  0  0  0  0
    3.0104   11.7165   29.6420 H    0  0  0  0  0  0  0  0  0  0  0  0
 10 12  1  0  0  0  0
  9 10  1  0  0  0  0
  7  9  1  0  0  0  0
  6  7  1  0  0  0  0
  5  6  1  0  0  0  0
  4  5  1  0  0  0  0
  2  4  1  0  0  0  0
  1  2  2  0  0  0  0
  3  2  1  0  0  0  0
 26  3  1  0  0  0  0
 27  3  1  0  0  0  0
 28  4  1  0  0  0  0
 29  5  1  0  0  0  0
 30  5  1  0  0  0  0
 31  6  1  0  0  0  0
 32  6  1  0  0  0  0
 33  7  1  0  0  0  0
 34  7  1  0  0  0  0
  8  4  1  0  0  0  0
 35  8  1  0  0  0  0
 36  8  1  0  0  0  0
 11 10  2  0  0  0  0
 37 12  1  0  0  0  0
 13 12  1  0  0  0  0
 14 13  1  0  0  0  0
 20 14  2  0  0  0  0
 15 14  1  0  0  0  0
 16 15  1  0  0  0  0
 38 16  1  0  0  0  0
 39 16  1  0  0  0  0
 40 16  1  0  0  0  0
 17 13  2  0  0  0  0
 41 17  1  0  0  0  0
 18 17  1  0  0  0  0
 19 18  2  0  0  0  0
 42 19  1  0  0  0  0
 43 20  1  0  0  0  0
 21 18  1  0  0  0  0
 44 21  1  0  0  0  0
 22 21  1  0  0  0  0
 23 22  2  0  0  0  0
 24 22  2  0  0  0  0
 25 22  1  0  0  0  0
 45 25  1  0  0  0  0
 46 25  1  0  0  0  0
 47 25  1  0  0  0  0
  9  8  1  0  0  0  0
 20 19  1  0  0  0  0
M  END
>  <FittedScore>
-35.08

$$$$
