A71EV2A-x3901a_lowest-energy
  FITTED

 40 41     0  0  0  0  0  0  0999 V2000
    9.5280   16.5603   19.1435 O    0  0  0  0  0  0  0  0  0  0  0  0
   10.2089   15.6373   19.5355 C    0  0  0  0  0  0  0  0  0  0  0  0
   10.7827   14.7888   18.6781 N    0  0  0  0  0  0  0  0  0  0  0  0
   10.3342   15.2499   20.9923 C    0  0  0  0  0  0  0  0  0  0  0  0
   10.9743   16.3465   21.8119 N    0  0  0  0  0  0  0  0  0  0  0  0
   11.2623   15.8034   23.1957 C    0  0  0  0  0  0  0  0  0  0  0  0
    9.9707   15.2780   23.8872 C    0  0  0  0  0  0  0  0  0  0  0  0
    8.9638   14.8744   21.6261 C    0  0  0  0  0  0  0  0  0  0  0  0
    9.0458   14.4185   23.0567 N    0  0  0  0  0  0  0  0  0  0  0  0
    8.1816   13.4668   23.5627 C    0  0  0  0  0  0  0  0  0  0  0  0
    7.2499   13.0339   22.8966 O    0  0  0  0  0  0  0  0  0  0  0  0
    8.3741   12.9710   25.0052 C    0  0  0  0  0  0  0  0  0  0  0  0
    7.5182   11.7591   25.3743 C    0  0  0  0  0  0  0  0  0  0  0  0
    7.8060   10.4728   24.8591 C    0  0  0  0  0  0  0  0  0  0  0  0
    8.9230   10.3110   24.0483 O    0  0  0  0  0  0  0  0  0  0  0  0
    9.2636    9.1243   23.2965 C    0  0  0  0  0  0  0  0  0  0  0  0
    6.4181   11.9416   26.2298 C    0  0  0  0  0  0  0  0  0  0  0  0
    5.6156   10.8549   26.5943 C    0  0  0  0  0  0  0  0  0  0  0  0
    5.8841    9.5921   26.0685 C    0  0  0  0  0  0  0  0  0  0  0  0
    6.9597    9.4031   25.1925 C    0  0  0  0  0  0  0  0  0  0  0  0
   10.7807   14.9970   17.6893 H    0  0  0  0  0  0  0  0  0  0  0  0
   11.1274   13.8870   19.0025 H    0  0  0  0  0  0  0  0  0  0  0  0
   10.9805   14.3636   21.0672 H    0  0  0  0  0  0  0  0  0  0  0  0
   11.8459   16.6564   21.3561 H    0  0  0  0  0  0  0  0  0  0  0  0
   10.3275   17.1681   21.8404 H    0  0  0  0  0  0  0  0  0  0  0  0
   12.0085   15.0072   23.1243 H    0  0  0  0  0  0  0  0  0  0  0  0
   11.7067   16.6110   23.7826 H    0  0  0  0  0  0  0  0  0  0  0  0
   10.3191   14.7651   24.7811 H    0  0  0  0  0  0  0  0  0  0  0  0
    9.3932   16.1354   24.2454 H    0  0  0  0  0  0  0  0  0  0  0  0
    8.5244   14.0943   20.9918 H    0  0  0  0  0  0  0  0  0  0  0  0
    8.2766   15.7250   21.5798 H    0  0  0  0  0  0  0  0  0  0  0  0
    9.4216   12.6924   25.1655 H    0  0  0  0  0  0  0  0  0  0  0  0
    8.1748   13.8018   25.6947 H    0  0  0  0  0  0  0  0  0  0  0  0
   10.1443    9.3346   22.6832 H    0  0  0  0  0  0  0  0  0  0  0  0
    8.4459    8.8500   22.6268 H    0  0  0  0  0  0  0  0  0  0  0  0
    9.4927    8.2956   23.9692 H    0  0  0  0  0  0  0  0  0  0  0  0
    6.1820   12.9281   26.6278 H    0  0  0  0  0  0  0  0  0  0  0  0
    4.7785   11.0004   27.2724 H    0  0  0  0  0  0  0  0  0  0  0  0
    5.2555    8.7453   26.3420 H    0  0  0  0  0  0  0  0  0  0  0  0
    7.1196    8.4051   24.7970 H    0  0  0  0  0  0  0  0  0  0  0  0
  9 10  1  0  0  0  0
  7  9  1  0  0  0  0
  6  7  1  0  0  0  0
  5  6  1  0  0  0  0
  4  5  1  0  0  0  0
  2  4  1  0  0  0  0
  1  2  2  0  0  0  0
  3  2  1  0  0  0  0
 21  3  1  0  0  0  0
 22  3  1  0  0  0  0
 23  4  1  0  0  0  0
 24  5  1  0  0  0  0
 25  5  1  0  0  0  0
 26  6  1  0  0  0  0
 27  6  1  0  0  0  0
 28  7  1  0  0  0  0
 29  7  1  0  0  0  0
  8  4  1  0  0  0  0
 30  8  1  0  0  0  0
 31  8  1  0  0  0  0
 11 10  2  0  0  0  0
 12 10  1  0  0  0  0
 32 12  1  0  0  0  0
 33 12  1  0  0  0  0
 13 12  1  0  0  0  0
 14 13  1  0  0  0  0
 20 14  2  0  0  0  0
 15 14  1  0  0  0  0
 16 15  1  0  0  0  0
 34 16  1  0  0  0  0
 35 16  1  0  0  0  0
 36 16  1  0  0  0  0
 17 13  2  0  0  0  0
 37 17  1  0  0  0  0
 18 17  1  0  0  0  0
 38 18  1  0  0  0  0
 19 18  2  0  0  0  0
 39 19  1  0  0  0  0
 40 20  1  0  0  0  0
  9  8  1  0  0  0  0
 20 19  1  0  0  0  0
M  CHG  1   5   1
M  END
>  <FittedScore>
-36.08

$$$$
