A71EV2A-x3901a_best-RMSD
  FITTED

 40 41     0  0  0  0  0  0  0999 V2000
    9.6863   16.5909   19.1946 O    0  0  0  0  0  0  0  0  0  0  0  0
   10.2447   15.5783   19.5723 C    0  0  0  0  0  0  0  0  0  0  0  0
   10.7749   14.7067   18.6939 N    0  0  0  0  0  0  0  0  0  0  0  0
   10.3219   15.1517   21.0288 C    0  0  0  0  0  0  0  0  0  0  0  0
   11.1423   16.1335   21.8416 N    0  0  0  0  0  0  0  0  0  0  0  0
   11.2930   15.6223   23.2580 C    0  0  0  0  0  0  0  0  0  0  0  0
    9.9138   15.3297   23.9147 C    0  0  0  0  0  0  0  0  0  0  0  0
    8.9121   14.9751   21.6734 C    0  0  0  0  0  0  0  0  0  0  0  0
    8.9594   14.5015   23.0937 N    0  0  0  0  0  0  0  0  0  0  0  0
    8.1097   13.5328   23.5887 C    0  0  0  0  0  0  0  0  0  0  0  0
    7.2149   13.0603   22.9030 O    0  0  0  0  0  0  0  0  0  0  0  0
    8.3096   13.0292   25.0282 C    0  0  0  0  0  0  0  0  0  0  0  0
    7.4622   11.8162   25.4068 C    0  0  0  0  0  0  0  0  0  0  0  0
    7.7313   10.5403   24.8523 C    0  0  0  0  0  0  0  0  0  0  0  0
    8.7708   10.4264   23.9305 O    0  0  0  0  0  0  0  0  0  0  0  0
    9.4227    9.2093   23.5007 C    0  0  0  0  0  0  0  0  0  0  0  0
    6.3992   11.9757   26.3164 C    0  0  0  0  0  0  0  0  0  0  0  0
    5.6087   10.8805   26.6833 C    0  0  0  0  0  0  0  0  0  0  0  0
    5.8713    9.6242   26.1341 C    0  0  0  0  0  0  0  0  0  0  0  0
    6.9183    9.4525   25.2179 C    0  0  0  0  0  0  0  0  0  0  0  0
   10.7829   14.9222   17.7051 H    0  0  0  0  0  0  0  0  0  0  0  0
   11.0398   13.7725   18.9991 H    0  0  0  0  0  0  0  0  0  0  0  0
   10.8383   14.1836   21.0969 H    0  0  0  0  0  0  0  0  0  0  0  0
   12.0760   16.2497   21.4062 H    0  0  0  0  0  0  0  0  0  0  0  0
   10.6666   17.0579   21.8260 H    0  0  0  0  0  0  0  0  0  0  0  0
   11.9132   14.7193   23.2402 H    0  0  0  0  0  0  0  0  0  0  0  0
   11.8345   16.3747   23.8356 H    0  0  0  0  0  0  0  0  0  0  0  0
   10.1451   14.8842   24.8813 H    0  0  0  0  0  0  0  0  0  0  0  0
    9.4230   16.2789   24.1437 H    0  0  0  0  0  0  0  0  0  0  0  0
    8.3502   14.2857   21.0345 H    0  0  0  0  0  0  0  0  0  0  0  0
    8.3603   15.9204   21.6381 H    0  0  0  0  0  0  0  0  0  0  0  0
    9.3542   12.7458   25.1824 H    0  0  0  0  0  0  0  0  0  0  0  0
    8.1122   13.8505   25.7218 H    0  0  0  0  0  0  0  0  0  0  0  0
   10.2183    9.4902   22.8046 H    0  0  0  0  0  0  0  0  0  0  0  0
    8.7282    8.5437   22.9846 H    0  0  0  0  0  0  0  0  0  0  0  0
    9.8674    8.7033   24.3604 H    0  0  0  0  0  0  0  0  0  0  0  0
    6.1762   12.9499   26.7436 H    0  0  0  0  0  0  0  0  0  0  0  0
    4.7890   11.0118   27.3859 H    0  0  0  0  0  0  0  0  0  0  0  0
    5.2520    8.7720   26.4124 H    0  0  0  0  0  0  0  0  0  0  0  0
    7.0784    8.4658   24.7923 H    0  0  0  0  0  0  0  0  0  0  0  0
  9 10  1  0  0  0  0
  7  9  1  0  0  0  0
  6  7  1  0  0  0  0
  5  6  1  0  0  0  0
  4  5  1  0  0  0  0
  2  4  1  0  0  0  0
  1  2  2  0  0  0  0
  3  2  1  0  0  0  0
 21  3  1  0  0  0  0
 22  3  1  0  0  0  0
 23  4  1  0  0  0  0
 24  5  1  0  0  0  0
 25  5  1  0  0  0  0
 26  6  1  0  0  0  0
 27  6  1  0  0  0  0
 28  7  1  0  0  0  0
 29  7  1  0  0  0  0
  8  4  1  0  0  0  0
 30  8  1  0  0  0  0
 31  8  1  0  0  0  0
 11 10  2  0  0  0  0
 12 10  1  0  0  0  0
 32 12  1  0  0  0  0
 33 12  1  0  0  0  0
 13 12  1  0  0  0  0
 14 13  1  0  0  0  0
 20 14  2  0  0  0  0
 15 14  1  0  0  0  0
 16 15  1  0  0  0  0
 34 16  1  0  0  0  0
 35 16  1  0  0  0  0
 36 16  1  0  0  0  0
 17 13  2  0  0  0  0
 37 17  1  0  0  0  0
 18 17  1  0  0  0  0
 38 18  1  0  0  0  0
 19 18  2  0  0  0  0
 39 19  1  0  0  0  0
 40 20  1  0  0  0  0
  9  8  1  0  0  0  0
 20 19  1  0  0  0  0
M  CHG  1   5   1
M  END
>  <FittedScore>
-36.12

$$$$
