A71EV2A-x7096a_lowest-energy
  FITTED

 75 77     0  0  0  0  0  0  0999 V2000
    9.7172    8.5583   23.5343 C    0  0  0  0  0  0  0  0  0  0  0  0
    9.5019   10.3294   23.8803 S    0  0  0  0  0  0  0  0  0  0  0  0
    8.0907   10.5043   24.9784 C    0  0  0  0  0  0  0  0  0  0  0  0
    7.3990    9.3864   25.3291 N    0  0  0  0  0  0  0  0  0  0  0  0
    6.3246    9.5229   26.1524 C    0  0  0  0  0  0  0  0  0  0  0  0
    5.8482   10.7060   26.6105 N    0  0  0  0  0  0  0  0  0  0  0  0
    6.5107   11.8413   26.2487 C    0  0  0  0  0  0  0  0  0  0  0  0
    5.9245   13.0143   26.6738 N    0  0  0  0  0  0  0  0  0  0  0  0
    6.0380   13.4704   28.0787 C    0  0  0  0  0  0  0  0  0  0  0  0
    6.6240   14.9026   28.1134 C    0  0  0  0  0  0  0  0  0  0  0  0
    5.8492   15.8948   27.1800 C    0  0  0  0  0  0  0  0  0  0  0  0
    6.5818   17.2460   27.1691 C    0  0  0  0  0  0  0  0  0  0  0  0
    7.4747   17.3903   26.3536 O    0  0  0  0  0  0  0  0  0  0  0  0
    6.4020   18.1570   28.2004 N    0  0  0  0  0  0  0  0  0  0  0  0
    5.0834   18.4236   28.9065 C    0  0  0  0  0  0  0  0  0  0  0  0
    4.6724   17.4046   30.0110 C    0  0  0  0  0  0  0  0  0  0  0  0
    3.9260   18.7556   27.9221 C    0  0  0  0  0  0  0  0  0  0  0  0
    7.5448   19.0527   28.6568 C    0  0  0  0  0  0  0  0  0  0  0  0
    7.3321   20.5812   28.4301 C    0  0  0  0  0  0  0  0  0  0  0  0
    8.0160   18.7388   30.1029 C    0  0  0  0  0  0  0  0  0  0  0  0
    5.6006   15.3149   25.7427 C    0  0  0  0  0  0  0  0  0  0  0  0
    5.0905   13.8488   25.7726 C    0  0  0  0  0  0  0  0  0  0  0  0
    7.6964   11.7899   25.4624 C    0  0  0  0  0  0  0  0  0  0  0  0
    8.5123   13.0502   25.0951 C    0  0  0  0  0  0  0  0  0  0  0  0
    8.2772   13.5562   23.6641 C    0  0  0  0  0  0  0  0  0  0  0  0
    7.4457   12.9956   22.9692 O    0  0  0  0  0  0  0  0  0  0  0  0
    9.0375   14.5982   23.1707 N    0  0  0  0  0  0  0  0  0  0  0  0
   10.0243   15.4476   23.9316 C    0  0  0  0  0  0  0  0  0  0  0  0
   11.4357   15.5260   23.2803 C    0  0  0  0  0  0  0  0  0  0  0  0
   11.3689   15.9688   21.7961 C    0  0  0  0  0  0  0  0  0  0  0  0
   10.3487   15.0713   21.0328 C    0  0  0  0  0  0  0  0  0  0  0  0
   10.2449   15.5040   19.5788 C    0  0  0  0  0  0  0  0  0  0  0  0
   10.7606   14.6562   18.6829 N    0  0  0  0  0  0  0  0  0  0  0  0
    9.5557   16.4352   19.2156 O    0  0  0  0  0  0  0  0  0  0  0  0
    8.9527   15.0563   21.7430 C    0  0  0  0  0  0  0  0  0  0  0  0
   10.6504    8.3994   22.9886 H    0  0  0  0  0  0  0  0  0  0  0  0
    8.8794    8.1949   22.9331 H    0  0  0  0  0  0  0  0  0  0  0  0
    9.7646    8.0142   24.4785 H    0  0  0  0  0  0  0  0  0  0  0  0
    5.7960    8.6189   26.4539 H    0  0  0  0  0  0  0  0  0  0  0  0
    6.6816   12.8115   28.6700 H    0  0  0  0  0  0  0  0  0  0  0  0
    5.0598   13.4662   28.5701 H    0  0  0  0  0  0  0  0  0  0  0  0
    7.6820   14.8681   27.8377 H    0  0  0  0  0  0  0  0  0  0  0  0
    6.5987   15.2629   29.1454 H    0  0  0  0  0  0  0  0  0  0  0  0
    4.8464   15.9985   27.5775 H    0  0  0  0  0  0  0  0  0  0  0  0
    5.1657   19.3467   29.4823 H    0  0  0  0  0  0  0  0  0  0  0  0
    3.9763   17.8706   30.7123 H    0  0  0  0  0  0  0  0  0  0  0  0
    5.5388   17.0755   30.5881 H    0  0  0  0  0  0  0  0  0  0  0  0
    4.1718   16.5187   29.6193 H    0  0  0  0  0  0  0  0  0  0  0  0
    3.1048   19.2524   28.4438 H    0  0  0  0  0  0  0  0  0  0  0  0
    3.5177   17.8677   27.4371 H    0  0  0  0  0  0  0  0  0  0  0  0
    4.2731   19.4315   27.1353 H    0  0  0  0  0  0  0  0  0  0  0  0
    8.4419   18.8355   28.0697 H    0  0  0  0  0  0  0  0  0  0  0  0
    6.6940   21.0318   29.1931 H    0  0  0  0  0  0  0  0  0  0  0  0
    6.8782   20.7668   27.4536 H    0  0  0  0  0  0  0  0  0  0  0  0
    8.2870   21.1115   28.4545 H    0  0  0  0  0  0  0  0  0  0  0  0
    8.1795   17.6637   30.2219 H    0  0  0  0  0  0  0  0  0  0  0  0
    7.2875   19.0590   30.8514 H    0  0  0  0  0  0  0  0  0  0  0  0
    8.9615   19.2396   30.3240 H    0  0  0  0  0  0  0  0  0  0  0  0
    6.5026   15.3521   25.1292 H    0  0  0  0  0  0  0  0  0  0  0  0
    4.8659   15.9455   25.2335 H    0  0  0  0  0  0  0  0  0  0  0  0
    5.0926   13.4642   24.7489 H    0  0  0  0  0  0  0  0  0  0  0  0
    4.0459   13.8378   26.0950 H    0  0  0  0  0  0  0  0  0  0  0  0
    9.5724   12.8327   25.2474 H    0  0  0  0  0  0  0  0  0  0  0  0
    8.3139   13.8561   25.7951 H    0  0  0  0  0  0  0  0  0  0  0  0
   10.1696   15.1131   24.9550 H    0  0  0  0  0  0  0  0  0  0  0  0
    9.6126   16.4580   24.0231 H    0  0  0  0  0  0  0  0  0  0  0  0
   11.9273   14.5523   23.3348 H    0  0  0  0  0  0  0  0  0  0  0  0
   12.0616   16.2310   23.8293 H    0  0  0  0  0  0  0  0  0  0  0  0
   12.3571   15.8779   21.3286 H    0  0  0  0  0  0  0  0  0  0  0  0
   11.0831   17.0269   21.7342 H    0  0  0  0  0  0  0  0  0  0  0  0
   10.7330   14.0400   21.0609 H    0  0  0  0  0  0  0  0  0  0  0  0
   10.7154   14.8965   17.7020 H    0  0  0  0  0  0  0  0  0  0  0  0
   11.0221   13.7131   18.9747 H    0  0  0  0  0  0  0  0  0  0  0  0
    8.2854   14.4439   21.1281 H    0  0  0  0  0  0  0  0  0  0  0  0
    8.5089   16.0559   21.7244 H    0  0  0  0  0  0  0  0  0  0  0  0
  8  9  1  0  0  0  0
  7  8  1  0  0  0  0
  6  7  1  0  0  0  0
  5  6  2  0  0  0  0
  4  5  1  0  0  0  0
  3  4  2  0  0  0  0
  2  3  1  0  0  0  0
  1  2  1  0  0  0  0
 36  1  1  0  0  0  0
 37  1  1  0  0  0  0
 38  1  1  0  0  0  0
 39  5  1  0  0  0  0
 23  7  2  0  0  0  0
 10  9  1  0  0  0  0
 40  9  1  0  0  0  0
 41  9  1  0  0  0  0
 11 10  1  0  0  0  0
 42 10  1  0  0  0  0
 43 10  1  0  0  0  0
 12 11  1  0  0  0  0
 21 11  1  0  0  0  0
 44 11  1  0  0  0  0
 13 12  2  0  0  0  0
 14 12  1  0  0  0  0
 15 14  1  0  0  0  0
 18 14  1  0  0  0  0
 16 15  1  0  0  0  0
 17 15  1  0  0  0  0
 45 15  1  0  0  0  0
 46 16  1  0  0  0  0
 47 16  1  0  0  0  0
 48 16  1  0  0  0  0
 49 17  1  0  0  0  0
 50 17  1  0  0  0  0
 51 17  1  0  0  0  0
 19 18  1  0  0  0  0
 20 18  1  0  0  0  0
 52 18  1  0  0  0  0
 53 19  1  0  0  0  0
 54 19  1  0  0  0  0
 55 19  1  0  0  0  0
 56 20  1  0  0  0  0
 57 20  1  0  0  0  0
 58 20  1  0  0  0  0
 22 21  1  0  0  0  0
 59 21  1  0  0  0  0
 60 21  1  0  0  0  0
 61 22  1  0  0  0  0
 62 22  1  0  0  0  0
 24 23  1  0  0  0  0
 25 24  1  0  0  0  0
 63 24  1  0  0  0  0
 64 24  1  0  0  0  0
 26 25  2  0  0  0  0
 27 25  1  0  0  0  0
 28 27  1  0  0  0  0
 29 28  1  0  0  0  0
 65 28  1  0  0  0  0
 66 28  1  0  0  0  0
 30 29  1  0  0  0  0
 67 29  1  0  0  0  0
 68 29  1  0  0  0  0
 31 30  1  0  0  0  0
 69 30  1  0  0  0  0
 70 30  1  0  0  0  0
 32 31  1  0  0  0  0
 35 31  1  0  0  0  0
 71 31  1  0  0  0  0
 33 32  1  0  0  0  0
 34 32  2  0  0  0  0
 72 33  1  0  0  0  0
 73 33  1  0  0  0  0
 74 35  1  0  0  0  0
 75 35  1  0  0  0  0
 22  8  1  0  0  0  0
 23  3  1  0  0  0  0
 35 27  1  0  0  0  0
M  END
>  <FittedScore>
-33.66

$$$$
