A71EV2A-x7096a_best-RMSD
  FITTED

 75 77     0  0  0  0  0  0  0999 V2000
    9.6387    8.5121   23.4468 C    0  0  0  0  0  0  0  0  0  0  0  0
    9.5568   10.2553   23.9254 S    0  0  0  0  0  0  0  0  0  0  0  0
    8.1139   10.4743   24.9777 C    0  0  0  0  0  0  0  0  0  0  0  0
    7.3887    9.3726   25.3235 N    0  0  0  0  0  0  0  0  0  0  0  0
    6.2981    9.5352   26.1192 C    0  0  0  0  0  0  0  0  0  0  0  0
    5.8374   10.7290   26.5640 N    0  0  0  0  0  0  0  0  0  0  0  0
    6.5248   11.8526   26.2073 C    0  0  0  0  0  0  0  0  0  0  0  0
    5.9786   13.0597   26.6054 N    0  0  0  0  0  0  0  0  0  0  0  0
    5.2928   13.9331   25.6235 C    0  0  0  0  0  0  0  0  0  0  0  0
    3.7619   13.8534   25.8359 C    0  0  0  0  0  0  0  0  0  0  0  0
    3.3641   14.1567   27.3150 C    0  0  0  0  0  0  0  0  0  0  0  0
    1.8524   13.9319   27.5220 C    0  0  0  0  0  0  0  0  0  0  0  0
    1.4060   12.8096   27.3373 O    0  0  0  0  0  0  0  0  0  0  0  0
    1.0173   15.0272   27.6500 N    0  0  0  0  0  0  0  0  0  0  0  0
    1.3920   16.2552   28.4469 C    0  0  0  0  0  0  0  0  0  0  0  0
    0.4040   16.6079   29.5936 C    0  0  0  0  0  0  0  0  0  0  0  0
    1.7076   17.4955   27.5591 C    0  0  0  0  0  0  0  0  0  0  0  0
   -0.3286   15.0996   26.9536 C    0  0  0  0  0  0  0  0  0  0  0  0
   -0.2284   14.8619   25.4183 C    0  0  0  0  0  0  0  0  0  0  0  0
   -1.4235   14.2127   27.6120 C    0  0  0  0  0  0  0  0  0  0  0  0
    4.2095   13.3346   28.3450 C    0  0  0  0  0  0  0  0  0  0  0  0
    5.7348   13.3821   28.0337 C    0  0  0  0  0  0  0  0  0  0  0  0
    7.7214   11.7670   25.4334 C    0  0  0  0  0  0  0  0  0  0  0  0
    8.5559   13.0098   25.0724 C    0  0  0  0  0  0  0  0  0  0  0  0
    8.3722   13.5036   23.6278 C    0  0  0  0  0  0  0  0  0  0  0  0
    7.5305   12.9817   22.9060 O    0  0  0  0  0  0  0  0  0  0  0  0
    9.1747   14.5353   23.1687 N    0  0  0  0  0  0  0  0  0  0  0  0
   10.2214   15.3028   23.9486 C    0  0  0  0  0  0  0  0  0  0  0  0
   11.6202   15.3341   23.2628 C    0  0  0  0  0  0  0  0  0  0  0  0
   11.5360   15.8342   21.7947 C    0  0  0  0  0  0  0  0  0  0  0  0
   10.4392   15.0429   21.0285 C    0  0  0  0  0  0  0  0  0  0  0  0
   10.3385   15.4905   19.5774 C    0  0  0  0  0  0  0  0  0  0  0  0
   10.8396   14.6402   18.6732 N    0  0  0  0  0  0  0  0  0  0  0  0
    9.6757   16.4323   19.2049 O    0  0  0  0  0  0  0  0  0  0  0  0
    9.0721   15.0730   21.7742 C    0  0  0  0  0  0  0  0  0  0  0  0
   10.5151    8.3277   22.8260 H    0  0  0  0  0  0  0  0  0  0  0  0
    8.7430    8.2448   22.8823 H    0  0  0  0  0  0  0  0  0  0  0  0
    9.7097    7.9072   24.3536 H    0  0  0  0  0  0  0  0  0  0  0  0
    5.7513    8.6431   26.4132 H    0  0  0  0  0  0  0  0  0  0  0  0
    5.4866   13.6267   24.5960 H    0  0  0  0  0  0  0  0  0  0  0  0
    5.6380   14.9684   25.7007 H    0  0  0  0  0  0  0  0  0  0  0  0
    3.4183   12.8564   25.5403 H    0  0  0  0  0  0  0  0  0  0  0  0
    3.2668   14.5669   25.1728 H    0  0  0  0  0  0  0  0  0  0  0  0
    3.6473   15.2010   27.4570 H    0  0  0  0  0  0  0  0  0  0  0  0
    2.3077   16.0451   29.0094 H    0  0  0  0  0  0  0  0  0  0  0  0
   -0.5542   16.9788   29.2227 H    0  0  0  0  0  0  0  0  0  0  0  0
    0.8305   17.3777   30.2379 H    0  0  0  0  0  0  0  0  0  0  0  0
    0.2133   15.7330   30.2189 H    0  0  0  0  0  0  0  0  0  0  0  0
    0.8008   17.9750   27.1812 H    0  0  0  0  0  0  0  0  0  0  0  0
    2.3235   17.2218   26.6989 H    0  0  0  0  0  0  0  0  0  0  0  0
    2.2618   18.2413   28.1318 H    0  0  0  0  0  0  0  0  0  0  0  0
   -0.7300   16.1127   27.0185 H    0  0  0  0  0  0  0  0  0  0  0  0
   -1.1801   15.0816   24.9248 H    0  0  0  0  0  0  0  0  0  0  0  0
    0.0406   13.8305   25.1802 H    0  0  0  0  0  0  0  0  0  0  0  0
    0.5292   15.5197   24.9809 H    0  0  0  0  0  0  0  0  0  0  0  0
   -1.4300   14.3390   28.6965 H    0  0  0  0  0  0  0  0  0  0  0  0
   -1.2682   13.1525   27.4043 H    0  0  0  0  0  0  0  0  0  0  0  0
   -2.4165   14.4808   27.2454 H    0  0  0  0  0  0  0  0  0  0  0  0
    3.8765   12.2907   28.3710 H    0  0  0  0  0  0  0  0  0  0  0  0
    4.0373   13.7362   29.3478 H    0  0  0  0  0  0  0  0  0  0  0  0
    6.2623   12.6957   28.7022 H    0  0  0  0  0  0  0  0  0  0  0  0
    6.1196   14.3801   28.2623 H    0  0  0  0  0  0  0  0  0  0  0  0
    9.6043   12.7778   25.2718 H    0  0  0  0  0  0  0  0  0  0  0  0
    8.3462   13.8381   25.7516 H    0  0  0  0  0  0  0  0  0  0  0  0
   10.3700   14.9362   24.9595 H    0  0  0  0  0  0  0  0  0  0  0  0
    9.8658   16.3315   24.0721 H    0  0  0  0  0  0  0  0  0  0  0  0
   12.0597   14.3307   23.2750 H    0  0  0  0  0  0  0  0  0  0  0  0
   12.3005   15.9740   23.8289 H    0  0  0  0  0  0  0  0  0  0  0  0
   12.5061   15.6780   21.3127 H    0  0  0  0  0  0  0  0  0  0  0  0
   11.3266   16.9112   21.7686 H    0  0  0  0  0  0  0  0  0  0  0  0
   10.7479   13.9889   21.0502 H    0  0  0  0  0  0  0  0  0  0  0  0
   11.1302   13.7115   18.9613 H    0  0  0  0  0  0  0  0  0  0  0  0
   10.6844   14.8170   17.6905 H    0  0  0  0  0  0  0  0  0  0  0  0
    8.3503   14.5305   21.1531 H    0  0  0  0  0  0  0  0  0  0  0  0
    8.6990   16.1004   21.8262 H    0  0  0  0  0  0  0  0  0  0  0  0
  8  9  1  0  0  0  0
  7  8  1  0  0  0  0
  6  7  1  0  0  0  0
  5  6  2  0  0  0  0
  4  5  1  0  0  0  0
  3  4  2  0  0  0  0
  2  3  1  0  0  0  0
  1  2  1  0  0  0  0
 36  1  1  0  0  0  0
 37  1  1  0  0  0  0
 38  1  1  0  0  0  0
 39  5  1  0  0  0  0
 23  7  2  0  0  0  0
 10  9  1  0  0  0  0
 40  9  1  0  0  0  0
 41  9  1  0  0  0  0
 11 10  1  0  0  0  0
 42 10  1  0  0  0  0
 43 10  1  0  0  0  0
 12 11  1  0  0  0  0
 21 11  1  0  0  0  0
 44 11  1  0  0  0  0
 13 12  2  0  0  0  0
 14 12  1  0  0  0  0
 15 14  1  0  0  0  0
 18 14  1  0  0  0  0
 16 15  1  0  0  0  0
 17 15  1  0  0  0  0
 45 15  1  0  0  0  0
 46 16  1  0  0  0  0
 47 16  1  0  0  0  0
 48 16  1  0  0  0  0
 49 17  1  0  0  0  0
 50 17  1  0  0  0  0
 51 17  1  0  0  0  0
 19 18  1  0  0  0  0
 20 18  1  0  0  0  0
 52 18  1  0  0  0  0
 53 19  1  0  0  0  0
 54 19  1  0  0  0  0
 55 19  1  0  0  0  0
 56 20  1  0  0  0  0
 57 20  1  0  0  0  0
 58 20  1  0  0  0  0
 22 21  1  0  0  0  0
 59 21  1  0  0  0  0
 60 21  1  0  0  0  0
 61 22  1  0  0  0  0
 62 22  1  0  0  0  0
 24 23  1  0  0  0  0
 25 24  1  0  0  0  0
 63 24  1  0  0  0  0
 64 24  1  0  0  0  0
 26 25  2  0  0  0  0
 27 25  1  0  0  0  0
 28 27  1  0  0  0  0
 29 28  1  0  0  0  0
 65 28  1  0  0  0  0
 66 28  1  0  0  0  0
 30 29  1  0  0  0  0
 67 29  1  0  0  0  0
 68 29  1  0  0  0  0
 31 30  1  0  0  0  0
 69 30  1  0  0  0  0
 70 30  1  0  0  0  0
 32 31  1  0  0  0  0
 35 31  1  0  0  0  0
 71 31  1  0  0  0  0
 33 32  1  0  0  0  0
 34 32  2  0  0  0  0
 72 33  1  0  0  0  0
 73 33  1  0  0  0  0
 74 35  1  0  0  0  0
 75 35  1  0  0  0  0
 22  8  1  0  0  0  0
 23  3  1  0  0  0  0
 35 27  1  0  0  0  0
M  END
>  <FittedScore>
-32.95

$$$$
