A71EV2A-x7287a_best-RMSD
  FITTED

 48 51     0  0  0  0  0  0  0999 V2000
    9.1582    8.7463   23.3755 C    0  0  0  0  0  0  0  0  0  0  0  0
    9.0800   10.4699   23.9292 S    0  0  0  0  0  0  0  0  0  0  0  0
    7.5528   10.8812   24.7126 C    0  0  0  0  0  0  0  0  0  0  0  0
    6.8449    9.8145   25.2296 C    0  0  0  0  0  0  0  0  0  0  0  0
    5.6542   10.0494   25.8631 C    0  0  0  0  0  0  0  0  0  0  0  0
    5.1462   11.3381   26.1088 C    0  0  0  0  0  0  0  0  0  0  0  0
    3.9698   11.5375   26.8635 C    0  0  0  0  0  0  0  0  0  0  0  0
    3.3616   12.7753   26.9912 O    0  0  0  0  0  0  0  0  0  0  0  0
    2.2472   12.5887   27.7785 C    0  0  0  0  0  0  0  0  0  0  0  0
    2.1013   11.2110   28.2439 N    0  0  0  0  0  0  0  0  0  0  0  0
    3.2746   10.5852   27.6336 C    0  0  0  0  0  0  0  0  0  0  0  0
    3.7470    9.2101   28.1328 C    0  0  0  0  0  0  0  0  0  0  0  0
    5.8604   12.4284   25.5698 C    0  0  0  0  0  0  0  0  0  0  0  0
    7.0557   12.2014   24.8829 C    0  0  0  0  0  0  0  0  0  0  0  0
    7.7622   13.3026   24.4553 O    0  0  0  0  0  0  0  0  0  0  0  0
    7.6851   13.8508   23.1888 C    0  0  0  0  0  0  0  0  0  0  0  0
    6.8800   13.5603   22.3807 O    0  0  0  0  0  0  0  0  0  0  0  0
    8.7213   14.7235   22.8509 N    0  0  0  0  0  0  0  0  0  0  0  0
    8.9838   15.3056   21.4998 C    0  0  0  0  0  0  0  0  0  0  0  0
   10.4251   15.2273   20.9561 C    0  0  0  0  0  0  0  0  0  0  0  0
   10.6442   15.7302   19.5485 C    0  0  0  0  0  0  0  0  0  0  0  0
   11.1160   14.8519   18.6964 N    0  0  0  0  0  0  0  0  0  0  0  0
   10.2194   16.7885   19.1623 O    0  0  0  0  0  0  0  0  0  0  0  0
   11.5095   15.6281   21.9944 C    0  0  0  0  0  0  0  0  0  0  0  0
   11.2229   14.9636   23.3730 C    0  0  0  0  0  0  0  0  0  0  0  0
   10.5939   13.6192   23.7375 C    0  0  0  0  0  0  0  0  0  0  0  0
    9.8054   14.8790   23.8241 C    0  0  0  0  0  0  0  0  0  0  0  0
   10.0767    8.5842   22.8113 H    0  0  0  0  0  0  0  0  0  0  0  0
    8.3191    8.5047   22.7458 H    0  0  0  0  0  0  0  0  0  0  0  0
    9.1789    8.1404   24.2919 H    0  0  0  0  0  0  0  0  0  0  0  0
    7.1924    8.7925   25.1666 H    0  0  0  0  0  0  0  0  0  0  0  0
    5.1565    9.1417   26.1181 H    0  0  0  0  0  0  0  0  0  0  0  0
    1.5055   13.3364   28.0340 H    0  0  0  0  0  0  0  0  0  0  0  0
    3.2871    8.9444   29.0817 H    0  0  0  0  0  0  0  0  0  0  0  0
    4.8255    9.1934   28.3104 H    0  0  0  0  0  0  0  0  0  0  0  0
    3.4886    8.4141   27.4254 H    0  0  0  0  0  0  0  0  0  0  0  0
    5.5154   13.4517   25.6878 H    0  0  0  0  0  0  0  0  0  0  0  0
    8.9767   16.3766   21.6542 H    0  0  0  0  0  0  0  0  0  0  0  0
    8.2851   14.9483   20.7463 H    0  0  0  0  0  0  0  0  0  0  0  0
   10.5436   14.1588   20.7763 H    0  0  0  0  0  0  0  0  0  0  0  0
   11.2415   13.8908   18.9748 H    0  0  0  0  0  0  0  0  0  0  0  0
   11.1824   15.1988   17.7476 H    0  0  0  0  0  0  0  0  0  0  0  0
   11.8853   16.6868   21.9642 H    0  0  0  0  0  0  0  0  0  0  0  0
   12.3643   15.0672   21.6055 H    0  0  0  0  0  0  0  0  0  0  0  0
   12.0472   15.0446   24.0315 H    0  0  0  0  0  0  0  0  0  0  0  0
   11.1670   13.1283   24.4357 H    0  0  0  0  0  0  0  0  0  0  0  0
   10.6579   12.9135   22.9879 H    0  0  0  0  0  0  0  0  0  0  0  0
    9.4268   15.0418   24.8277 H    0  0  0  0  0  0  0  0  0  0  0  0
 14 15  1  0  0  0  0
 13 14  2  0  0  0  0
  6 13  1  0  0  0  0
  5  6  2  0  0  0  0
  4  5  1  0  0  0  0
  3  4  2  0  0  0  0
  2  3  1  0  0  0  0
  1  2  1  0  0  0  0
 28  1  1  0  0  0  0
 29  1  1  0  0  0  0
 30  1  1  0  0  0  0
 31  4  1  0  0  0  0
 32  5  1  0  0  0  0
  7  6  1  0  0  0  0
  8  7  1  0  0  0  0
  9  8  1  0  0  0  0
 10  9  2  0  0  0  0
 33  9  1  0  0  0  0
 11 10  1  0  0  0  0
 12 11  1  0  0  0  0
 34 12  1  0  0  0  0
 35 12  1  0  0  0  0
 36 12  1  0  0  0  0
 37 13  1  0  0  0  0
 16 15  1  0  0  0  0
 17 16  2  0  0  0  0
 18 16  1  0  0  0  0
 19 18  1  0  0  0  0
 20 19  1  0  0  0  0
 38 19  1  0  0  0  0
 39 19  1  0  0  0  0
 21 20  1  0  0  0  0
 24 20  1  0  0  0  0
 40 20  1  0  0  0  0
 22 21  1  0  0  0  0
 23 21  2  0  0  0  0
 41 22  1  0  0  0  0
 42 22  1  0  0  0  0
 43 24  1  0  0  0  0
 44 24  1  0  0  0  0
 25 24  1  0  0  0  0
 26 25  1  0  0  0  0
 45 25  1  0  0  0  0
 46 26  1  0  0  0  0
 47 26  1  0  0  0  0
 27 26  1  0  0  0  0
 48 27  1  0  0  0  0
 11  7  2  0  0  0  0
 14  3  1  0  0  0  0
 27 18  1  0  0  0  0
 27 25  1  0  0  0  0
M  END
>  <FittedScore>
-34.05

$$$$
