A71EV2A-x4877b_lowest-energy
  FITTED

 38 40     0  0  0  0  0  0  0999 V2000
    7.4614   13.0936   22.8968 O    0  0  0  0  0  0  0  0  0  0  0  0
    8.2892   13.7006   23.5654 C    0  0  0  0  0  0  0  0  0  0  0  0
    8.8776   14.8515   23.0936 N    0  0  0  0  0  0  0  0  0  0  0  0
    9.6635   15.8465   23.8934 C    0  0  0  0  0  0  0  0  0  0  0  0
   11.1519   15.9200   23.4514 C    0  0  0  0  0  0  0  0  0  0  0  0
   11.2800   16.2248   21.9314 C    0  0  0  0  0  0  0  0  0  0  0  0
    8.8913   15.2351   21.6509 C    0  0  0  0  0  0  0  0  0  0  0  0
   10.3476   15.3052   21.0808 C    0  0  0  0  0  0  0  0  0  0  0  0
   10.3420   15.7328   19.6187 C    0  0  0  0  0  0  0  0  0  0  0  0
    9.8760   16.7904   19.2343 O    0  0  0  0  0  0  0  0  0  0  0  0
   10.6927   14.7789   18.7363 N    0  0  0  0  0  0  0  0  0  0  0  0
    8.8342   13.0686   24.8612 C    0  0  0  0  0  0  0  0  0  0  0  0
    8.9110   11.5507   24.7196 C    0  0  0  0  0  0  0  0  0  0  0  0
    9.8557   10.9438   23.9039 C    0  0  0  0  0  0  0  0  0  0  0  0
    9.6936    9.5764   23.7898 C    0  0  0  0  0  0  0  0  0  0  0  0
    8.3258    9.0033   24.7196 S    0  0  0  0  0  0  0  0  0  0  0  0
    7.9944   10.6461   25.2441 C    0  0  0  0  0  0  0  0  0  0  0  0
    6.8385   10.9914   26.1717 C    0  0  0  0  0  0  0  0  0  0  0  0
    6.4318   12.4828   26.2074 C    0  0  0  0  0  0  0  0  0  0  0  0
    7.8783   13.5800   26.3455 S    0  0  0  0  0  0  0  0  0  0  0  0
    9.2039   16.8342   23.7780 H    0  0  0  0  0  0  0  0  0  0  0  0
    9.6181   15.6653   24.9675 H    0  0  0  0  0  0  0  0  0  0  0  0
   11.6635   16.6962   24.0239 H    0  0  0  0  0  0  0  0  0  0  0  0
   11.6453   14.9711   23.6823 H    0  0  0  0  0  0  0  0  0  0  0  0
   11.0460   17.2790   21.7576 H    0  0  0  0  0  0  0  0  0  0  0  0
   12.3173   16.0755   21.6196 H    0  0  0  0  0  0  0  0  0  0  0  0
    8.3813   16.1974   21.5337 H    0  0  0  0  0  0  0  0  0  0  0  0
    8.3214   14.5360   21.0329 H    0  0  0  0  0  0  0  0  0  0  0  0
   10.7580   14.2897   21.1563 H    0  0  0  0  0  0  0  0  0  0  0  0
   10.8700   13.8198   19.0434 H    0  0  0  0  0  0  0  0  0  0  0  0
   10.6744   14.9935   17.7494 H    0  0  0  0  0  0  0  0  0  0  0  0
    9.8630   13.3853   25.0496 H    0  0  0  0  0  0  0  0  0  0  0  0
   10.6461   11.4934   23.3921 H    0  0  0  0  0  0  0  0  0  0  0  0
   10.3373    8.9268   23.2075 H    0  0  0  0  0  0  0  0  0  0  0  0
    5.9637   10.4052   25.8807 H    0  0  0  0  0  0  0  0  0  0  0  0
    7.1140   10.6739   27.1777 H    0  0  0  0  0  0  0  0  0  0  0  0
    5.8873   12.7433   25.2956 H    0  0  0  0  0  0  0  0  0  0  0  0
    5.7741   12.6736   27.0577 H    0  0  0  0  0  0  0  0  0  0  0  0
  2  1  2  0  0  0  0
  3  2  1  0  0  0  0
  4  3  1  0  0  0  0
 21  4  1  0  0  0  0
 22  4  1  0  0  0  0
  5  4  1  0  0  0  0
 23  5  1  0  0  0  0
 24  5  1  0  0  0  0
  6  5  1  0  0  0  0
 25  6  1  0  0  0  0
 26  6  1  0  0  0  0
  7  3  1  0  0  0  0
 27  7  1  0  0  0  0
 28  7  1  0  0  0  0
  8  6  1  0  0  0  0
  9  8  1  0  0  0  0
 29  8  1  0  0  0  0
 10  9  2  0  0  0  0
 11  9  1  0  0  0  0
 30 11  1  0  0  0  0
 31 11  1  0  0  0  0
 12  2  1  0  0  0  0
 20 12  1  0  0  0  0
 32 12  1  0  0  0  0
 13 12  1  0  0  0  0
 14 13  1  0  0  0  0
 33 14  1  0  0  0  0
 15 14  2  0  0  0  0
 34 15  1  0  0  0  0
 16 15  1  0  0  0  0
 17 16  1  0  0  0  0
 18 17  1  0  0  0  0
 35 18  1  0  0  0  0
 36 18  1  0  0  0  0
 19 18  1  0  0  0  0
 37 19  1  0  0  0  0
 38 19  1  0  0  0  0
  8  7  1  0  0  0  0
 17 13  2  0  0  0  0
 20 19  1  0  0  0  0
M  END
>  <FittedScore>
-35.66

$$$$
