A71EV2A-x4421a_lowest-energy
  FITTED

 36 37     0  0  0  0  0  0  0999 V2000
    9.7809   16.5851   19.5758 O    0  0  0  0  0  0  0  0  0  0  0  0
   10.5671   15.6808   19.7803 C    0  0  0  0  0  0  0  0  0  0  0  0
   10.8832   14.8347   18.7810 N    0  0  0  0  0  0  0  0  0  0  0  0
   10.8893   15.1528   21.1732 C    0  0  0  0  0  0  0  0  0  0  0  0
   11.4202   16.1659   22.1955 C    0  0  0  0  0  0  0  0  0  0  0  0
   11.1090   15.4605   23.5343 C    0  0  0  0  0  0  0  0  0  0  0  0
    9.6695   14.5417   21.8767 C    0  0  0  0  0  0  0  0  0  0  0  0
    9.9545   14.5513   23.3212 N    0  0  0  0  0  0  0  0  0  0  0  0
    9.2399   13.9005   24.3005 C    0  0  0  0  0  0  0  0  0  0  0  0
    9.6098   13.9158   25.4614 O    0  0  0  0  0  0  0  0  0  0  0  0
    7.8675   13.3106   23.9355 C    0  0  0  0  0  0  0  0  0  0  0  0
    7.4104   12.1486   24.8227 C    0  0  0  0  0  0  0  0  0  0  0  0
    7.8374   10.8208   24.5923 C    0  0  0  0  0  0  0  0  0  0  0  0
    8.8292   10.5907   23.6465 O    0  0  0  0  0  0  0  0  0  0  0  0
    9.4425    9.3090   23.3905 C    0  0  0  0  0  0  0  0  0  0  0  0
    6.4763   12.3879   25.8487 C    0  0  0  0  0  0  0  0  0  0  0  0
    5.9346   11.3869   26.5888 N    0  0  0  0  0  0  0  0  0  0  0  0
    6.2872   10.1029   26.3189 C    0  0  0  0  0  0  0  0  0  0  0  0
    7.2288    9.7846   25.3335 C    0  0  0  0  0  0  0  0  0  0  0  0
   10.7265   15.1045   17.8191 H    0  0  0  0  0  0  0  0  0  0  0  0
   11.1413   13.8721   18.9999 H    0  0  0  0  0  0  0  0  0  0  0  0
   11.6561   14.3701   21.0910 H    0  0  0  0  0  0  0  0  0  0  0  0
   12.4902   16.3569   22.0628 H    0  0  0  0  0  0  0  0  0  0  0  0
   10.8885   17.1250   22.1295 H    0  0  0  0  0  0  0  0  0  0  0  0
   11.9775   14.8901   23.8755 H    0  0  0  0  0  0  0  0  0  0  0  0
   10.8697   16.2047   24.2983 H    0  0  0  0  0  0  0  0  0  0  0  0
    9.5385   13.5207   21.5048 H    0  0  0  0  0  0  0  0  0  0  0  0
    8.7517   15.1067   21.6760 H    0  0  0  0  0  0  0  0  0  0  0  0
    7.1389   14.1242   23.9594 H    0  0  0  0  0  0  0  0  0  0  0  0
    7.8246   12.9382   22.9118 H    0  0  0  0  0  0  0  0  0  0  0  0
   10.2293    9.4382   22.6446 H    0  0  0  0  0  0  0  0  0  0  0  0
    8.7078    8.5974   23.0053 H    0  0  0  0  0  0  0  0  0  0  0  0
    9.8964    8.9193   24.3063 H    0  0  0  0  0  0  0  0  0  0  0  0
    6.1601   13.4073   26.0586 H    0  0  0  0  0  0  0  0  0  0  0  0
    5.8340    9.2998   26.8992 H    0  0  0  0  0  0  0  0  0  0  0  0
    7.4812    8.7382   25.1839 H    0  0  0  0  0  0  0  0  0  0  0  0
  8  9  1  0  0  0  0
  6  8  1  0  0  0  0
  5  6  1  0  0  0  0
  4  5  1  0  0  0  0
  2  4  1  0  0  0  0
  1  2  2  0  0  0  0
  3  2  1  0  0  0  0
 20  3  1  0  0  0  0
 21  3  1  0  0  0  0
 22  4  1  0  0  0  0
 23  5  1  0  0  0  0
 24  5  1  0  0  0  0
 25  6  1  0  0  0  0
 26  6  1  0  0  0  0
  7  4  1  0  0  0  0
 27  7  1  0  0  0  0
 28  7  1  0  0  0  0
 10  9  2  0  0  0  0
 11  9  1  0  0  0  0
 29 11  1  0  0  0  0
 30 11  1  0  0  0  0
 12 11  1  0  0  0  0
 13 12  1  0  0  0  0
 19 13  2  0  0  0  0
 14 13  1  0  0  0  0
 15 14  1  0  0  0  0
 31 15  1  0  0  0  0
 32 15  1  0  0  0  0
 33 15  1  0  0  0  0
 16 12  2  0  0  0  0
 34 16  1  0  0  0  0
 17 16  1  0  0  0  0
 18 17  2  0  0  0  0
 35 18  1  0  0  0  0
 36 19  1  0  0  0  0
  8  7  1  0  0  0  0
 19 18  1  0  0  0  0
M  END
>  <FittedScore>
-35.67

$$$$
