A71EV2A-x4421a_best-RMSD
  FITTED

 36 37     0  0  0  0  0  0  0999 V2000
    9.7765   16.6074   19.6069 O    0  0  0  0  0  0  0  0  0  0  0  0
   10.5124   15.6591   19.7890 C    0  0  0  0  0  0  0  0  0  0  0  0
   10.7644   14.8094   18.7773 N    0  0  0  0  0  0  0  0  0  0  0  0
   10.8519   15.1085   21.1697 C    0  0  0  0  0  0  0  0  0  0  0  0
   11.4586   16.0850   22.1828 C    0  0  0  0  0  0  0  0  0  0  0  0
   11.1436   15.3997   23.5287 C    0  0  0  0  0  0  0  0  0  0  0  0
    9.6261   14.5477   21.9012 C    0  0  0  0  0  0  0  0  0  0  0  0
    9.9382   14.5547   23.3398 N    0  0  0  0  0  0  0  0  0  0  0  0
    9.2081   13.9527   24.3315 C    0  0  0  0  0  0  0  0  0  0  0  0
    9.6198   13.9107   25.4778 O    0  0  0  0  0  0  0  0  0  0  0  0
    7.7813   13.4765   24.0070 C    0  0  0  0  0  0  0  0  0  0  0  0
    7.3194   12.2913   24.8553 C    0  0  0  0  0  0  0  0  0  0  0  0
    7.7223   10.9690   24.5572 C    0  0  0  0  0  0  0  0  0  0  0  0
    8.6422   10.7634   23.5371 O    0  0  0  0  0  0  0  0  0  0  0  0
    9.3612    9.5266   23.3280 C    0  0  0  0  0  0  0  0  0  0  0  0
    6.4400   12.5038   25.9350 C    0  0  0  0  0  0  0  0  0  0  0  0
    5.9327   11.4825   26.6720 N    0  0  0  0  0  0  0  0  0  0  0  0
    6.2576   10.2067   26.3401 C    0  0  0  0  0  0  0  0  0  0  0  0
    7.1459    9.9118   25.2976 C    0  0  0  0  0  0  0  0  0  0  0  0
   10.9942   13.8393   18.9790 H    0  0  0  0  0  0  0  0  0  0  0  0
   10.6680   15.1096   17.8161 H    0  0  0  0  0  0  0  0  0  0  0  0
   11.5794   14.2942   21.0564 H    0  0  0  0  0  0  0  0  0  0  0  0
   12.5338   16.2112   22.0289 H    0  0  0  0  0  0  0  0  0  0  0  0
   10.9758   17.0671   22.1336 H    0  0  0  0  0  0  0  0  0  0  0  0
   11.9909   14.7876   23.8530 H    0  0  0  0  0  0  0  0  0  0  0  0
   10.9627   16.1598   24.2950 H    0  0  0  0  0  0  0  0  0  0  0  0
    9.4448   13.5289   21.5449 H    0  0  0  0  0  0  0  0  0  0  0  0
    8.7288   15.1477   21.7161 H    0  0  0  0  0  0  0  0  0  0  0  0
    7.1091   14.3291   24.1263 H    0  0  0  0  0  0  0  0  0  0  0  0
    7.6499   13.1739   22.9672 H    0  0  0  0  0  0  0  0  0  0  0  0
    8.6784    8.7090   23.0724 H    0  0  0  0  0  0  0  0  0  0  0  0
    9.9364    9.2661   24.2209 H    0  0  0  0  0  0  0  0  0  0  0  0
   10.0544    9.6663   22.4974 H    0  0  0  0  0  0  0  0  0  0  0  0
    6.1469   13.5194   26.1897 H    0  0  0  0  0  0  0  0  0  0  0  0
    5.8255    9.3885   26.9137 H    0  0  0  0  0  0  0  0  0  0  0  0
    7.3758    8.8698   25.0922 H    0  0  0  0  0  0  0  0  0  0  0  0
  8  9  1  0  0  0  0
  6  8  1  0  0  0  0
  5  6  1  0  0  0  0
  4  5  1  0  0  0  0
  2  4  1  0  0  0  0
  1  2  2  0  0  0  0
  3  2  1  0  0  0  0
 20  3  1  0  0  0  0
 21  3  1  0  0  0  0
 22  4  1  0  0  0  0
 23  5  1  0  0  0  0
 24  5  1  0  0  0  0
 25  6  1  0  0  0  0
 26  6  1  0  0  0  0
  7  4  1  0  0  0  0
 27  7  1  0  0  0  0
 28  7  1  0  0  0  0
 10  9  2  0  0  0  0
 11  9  1  0  0  0  0
 29 11  1  0  0  0  0
 30 11  1  0  0  0  0
 12 11  1  0  0  0  0
 13 12  1  0  0  0  0
 19 13  2  0  0  0  0
 14 13  1  0  0  0  0
 15 14  1  0  0  0  0
 31 15  1  0  0  0  0
 32 15  1  0  0  0  0
 33 15  1  0  0  0  0
 16 12  2  0  0  0  0
 34 16  1  0  0  0  0
 17 16  1  0  0  0  0
 18 17  2  0  0  0  0
 35 18  1  0  0  0  0
 36 19  1  0  0  0  0
  8  7  1  0  0  0  0
 19 18  1  0  0  0  0
M  END
>  <FittedScore>
-36.04

$$$$
