A71EV2A-x4445a_lowest-energy
  FITTED

 43 44     0  0  0  0  0  0  0999 V2000
    9.7007   16.6469   19.4995 O    0  0  0  0  0  0  0  0  0  0  0  0
   10.1868   15.5759   19.8117 C    0  0  0  0  0  0  0  0  0  0  0  0
   10.5443   14.6961   18.8557 N    0  0  0  0  0  0  0  0  0  0  0  0
   10.2609   15.0688   21.2561 C    0  0  0  0  0  0  0  0  0  0  0  0
   11.1466   16.0247   22.1167 C    0  0  0  0  0  0  0  0  0  0  0  0
   11.0186   15.7117   23.6254 C    0  0  0  0  0  0  0  0  0  0  0  0
    9.5226   15.6523   24.0286 C    0  0  0  0  0  0  0  0  0  0  0  0
    8.8213   14.8311   21.8396 C    0  0  0  0  0  0  0  0  0  0  0  0
    8.7761   14.5651   23.3170 N    0  0  0  0  0  0  0  0  0  0  0  0
    8.0816   13.5145   23.8951 C    0  0  0  0  0  0  0  0  0  0  0  0
    7.4044   12.7740   23.1993 O    0  0  0  0  0  0  0  0  0  0  0  0
    8.2378   13.2111   25.4115 C    0  0  0  0  0  0  0  0  0  0  0  0
    7.1846   12.2121   25.9715 C    0  0  0  0  0  0  0  0  0  0  0  0
    9.6951   12.8251   25.7599 C    0  0  0  0  0  0  0  0  0  0  0  0
   10.3621   11.7378   25.1382 C    0  0  0  0  0  0  0  0  0  0  0  0
    9.6720   10.9340   24.2370 O    0  0  0  0  0  0  0  0  0  0  0  0
    9.8244    9.5066   24.1109 C    0  0  0  0  0  0  0  0  0  0  0  0
   10.4219   13.6346   26.6617 C    0  0  0  0  0  0  0  0  0  0  0  0
   11.7872   13.4201   26.8882 C    0  0  0  0  0  0  0  0  0  0  0  0
   12.4389   12.3568   26.2622 C    0  0  0  0  0  0  0  0  0  0  0  0
   11.7263   11.5129   25.4083 C    0  0  0  0  0  0  0  0  0  0  0  0
   10.7604   13.7287   19.0963 H    0  0  0  0  0  0  0  0  0  0  0  0
   10.4487   14.9480   17.8792 H    0  0  0  0  0  0  0  0  0  0  0  0
   10.7621   14.0926   21.2799 H    0  0  0  0  0  0  0  0  0  0  0  0
   12.1928   15.9328   21.8104 H    0  0  0  0  0  0  0  0  0  0  0  0
   10.8619   17.0685   21.9493 H    0  0  0  0  0  0  0  0  0  0  0  0
   11.5128   14.7637   23.8549 H    0  0  0  0  0  0  0  0  0  0  0  0
   11.5249   16.4876   24.2037 H    0  0  0  0  0  0  0  0  0  0  0  0
    9.4497   15.6193   25.1064 H    0  0  0  0  0  0  0  0  0  0  0  0
    9.0483   16.6113   23.7935 H    0  0  0  0  0  0  0  0  0  0  0  0
    8.3871   14.0093   21.2651 H    0  0  0  0  0  0  0  0  0  0  0  0
    8.1825   15.6938   21.6286 H    0  0  0  0  0  0  0  0  0  0  0  0
    7.9722   14.1323   25.9365 H    0  0  0  0  0  0  0  0  0  0  0  0
    7.2502   11.2325   25.4920 H    0  0  0  0  0  0  0  0  0  0  0  0
    6.1724   12.5955   25.8157 H    0  0  0  0  0  0  0  0  0  0  0  0
    7.3258   12.0716   27.0451 H    0  0  0  0  0  0  0  0  0  0  0  0
   10.7485    9.2821   23.5756 H    0  0  0  0  0  0  0  0  0  0  0  0
    8.9840    9.1110   23.5378 H    0  0  0  0  0  0  0  0  0  0  0  0
    9.8381    9.0280   25.0925 H    0  0  0  0  0  0  0  0  0  0  0  0
    9.9396   14.4655   27.1704 H    0  0  0  0  0  0  0  0  0  0  0  0
   12.3377   14.0831   27.5501 H    0  0  0  0  0  0  0  0  0  0  0  0
   13.4984   12.1849   26.4333 H    0  0  0  0  0  0  0  0  0  0  0  0
   12.2550   10.6945   24.9287 H    0  0  0  0  0  0  0  0  0  0  0  0
  7  9  1  0  0  0  0
  6  7  1  0  0  0  0
  5  6  1  0  0  0  0
  4  5  1  0  0  0  0
  2  4  1  0  0  0  0
  1  2  2  0  0  0  0
  3  2  1  0  0  0  0
 22  3  1  0  0  0  0
 23  3  1  0  0  0  0
 24  4  1  0  0  0  0
 25  5  1  0  0  0  0
 26  5  1  0  0  0  0
 27  6  1  0  0  0  0
 28  6  1  0  0  0  0
 29  7  1  0  0  0  0
 30  7  1  0  0  0  0
  8  4  1  0  0  0  0
 31  8  1  0  0  0  0
 32  8  1  0  0  0  0
 10  9  1  0  0  0  0
 11 10  2  0  0  0  0
 12 10  1  0  0  0  0
 13 12  1  0  0  0  0
 33 12  1  0  0  0  0
 34 13  1  0  0  0  0
 35 13  1  0  0  0  0
 36 13  1  0  0  0  0
 14 12  1  0  0  0  0
 15 14  1  0  0  0  0
 21 15  2  0  0  0  0
 16 15  1  0  0  0  0
 17 16  1  0  0  0  0
 37 17  1  0  0  0  0
 38 17  1  0  0  0  0
 39 17  1  0  0  0  0
 18 14  2  0  0  0  0
 40 18  1  0  0  0  0
 19 18  1  0  0  0  0
 41 19  1  0  0  0  0
 20 19  2  0  0  0  0
 42 20  1  0  0  0  0
 43 21  1  0  0  0  0
  9  8  1  0  0  0  0
 21 20  1  0  0  0  0
M  END
>  <FittedScore>
-30.81

$$$$
