A71EV2A-x4967a_lowest-energy
  FITTED

 49 51     0  0  0  0  0  0  0999 V2000
    9.7541   16.8658   19.6935 O    0  0  0  0  0  0  0  0  0  0  0  0
   10.0681   15.7136   19.8874 C    0  0  0  0  0  0  0  0  0  0  0  0
   10.6003   15.0182   18.8640 N    0  0  0  0  0  0  0  0  0  0  0  0
    9.7626   14.9158   21.1603 C    0  0  0  0  0  0  0  0  0  0  0  0
    8.4521   15.3924   21.8934 C    0  0  0  0  0  0  0  0  0  0  0  0
   10.9913   14.7685   22.1606 C    0  0  0  0  0  0  0  0  0  0  0  0
   10.8417   15.7543   23.3543 C    0  0  0  0  0  0  0  0  0  0  0  0
    9.5171   15.4140   24.1247 C    0  0  0  0  0  0  0  0  0  0  0  0
    9.1404   16.6016   25.0487 C    0  0  0  0  0  0  0  0  0  0  0  0
   10.2933   16.9308   26.0526 C    0  0  0  0  0  0  0  0  0  0  0  0
   11.7434   16.9188   25.4421 C    0  0  0  0  0  0  0  0  0  0  0  0
   12.0072   15.7938   24.3886 C    0  0  0  0  0  0  0  0  0  0  0  0
    8.3828   14.8700   23.2948 N    0  0  0  0  0  0  0  0  0  0  0  0
    7.5639   13.8179   23.6470 C    0  0  0  0  0  0  0  0  0  0  0  0
    6.7370   13.3594   22.8679 O    0  0  0  0  0  0  0  0  0  0  0  0
    7.7835   13.0302   24.9500 C    0  0  0  0  0  0  0  0  0  0  0  0
    8.0629   11.5721   24.6068 C    0  0  0  0  0  0  0  0  0  0  0  0
    7.1696   10.5480   24.9929 C    0  0  0  0  0  0  0  0  0  0  0  0
    6.0168   10.8767   25.7019 O    0  0  0  0  0  0  0  0  0  0  0  0
    5.3892   10.0676   26.7217 C    0  0  0  0  0  0  0  0  0  0  0  0
    9.1827   11.2330   23.8207 C    0  0  0  0  0  0  0  0  0  0  0  0
    9.4454    9.9539   23.4155 N    0  0  0  0  0  0  0  0  0  0  0  0
    8.6107    8.9722   23.8446 C    0  0  0  0  0  0  0  0  0  0  0  0
    7.4601    9.2341   24.6117 C    0  0  0  0  0  0  0  0  0  0  0  0
   10.7819   14.0175   18.9714 H    0  0  0  0  0  0  0  0  0  0  0  0
   10.6794   15.4456   17.9387 H    0  0  0  0  0  0  0  0  0  0  0  0
    9.5332   13.8845   20.8489 H    0  0  0  0  0  0  0  0  0  0  0  0
    8.4048   16.4906   21.9315 H    0  0  0  0  0  0  0  0  0  0  0  0
    7.5762   15.1144   21.2961 H    0  0  0  0  0  0  0  0  0  0  0  0
   11.9590   14.8689   21.6773 H    0  0  0  0  0  0  0  0  0  0  0  0
   10.9893   13.7470   22.5682 H    0  0  0  0  0  0  0  0  0  0  0  0
   10.7800   16.7538   22.9064 H    0  0  0  0  0  0  0  0  0  0  0  0
    9.8467   14.6223   24.7782 H    0  0  0  0  0  0  0  0  0  0  0  0
    8.9202   17.4857   24.4458 H    0  0  0  0  0  0  0  0  0  0  0  0
    8.2258   16.3702   25.6059 H    0  0  0  0  0  0  0  0  0  0  0  0
   10.1063   17.9208   26.4742 H    0  0  0  0  0  0  0  0  0  0  0  0
   10.2446   16.2305   26.8929 H    0  0  0  0  0  0  0  0  0  0  0  0
   11.9413   17.8858   24.9705 H    0  0  0  0  0  0  0  0  0  0  0  0
   12.4660   16.8213   26.2578 H    0  0  0  0  0  0  0  0  0  0  0  0
   12.9613   15.9635   23.8873 H    0  0  0  0  0  0  0  0  0  0  0  0
   12.1093   14.8310   24.9038 H    0  0  0  0  0  0  0  0  0  0  0  0
    8.5517   13.3421   25.6535 H    0  0  0  0  0  0  0  0  0  0  0  0
    6.8826   13.1815   25.5433 H    0  0  0  0  0  0  0  0  0  0  0  0
    6.0928    9.8307   27.5255 H    0  0  0  0  0  0  0  0  0  0  0  0
    5.0528    9.1370   26.2577 H    0  0  0  0  0  0  0  0  0  0  0  0
    4.5306   10.5859   27.1548 H    0  0  0  0  0  0  0  0  0  0  0  0
    9.8878   11.9980   23.5250 H    0  0  0  0  0  0  0  0  0  0  0  0
    8.8439    7.9458   23.5963 H    0  0  0  0  0  0  0  0  0  0  0  0
    6.8291    8.4151   24.9202 H    0  0  0  0  0  0  0  0  0  0  0  0
  5 13  1  0  0  0  0
  4  5  1  0  0  0  0
  2  4  1  0  0  0  0
  1  2  2  0  0  0  0
  3  2  1  0  0  0  0
 25  3  1  0  0  0  0
 26  3  1  0  0  0  0
 27  4  1  0  0  0  0
 28  5  1  0  0  0  0
 29  5  1  0  0  0  0
  6  4  1  0  0  0  0
 30  6  1  0  0  0  0
 31  6  1  0  0  0  0
  7  6  1  0  0  0  0
 12  7  1  0  0  0  0
 32  7  1  0  0  0  0
  8  7  1  0  0  0  0
  9  8  1  0  0  0  0
 33  8  1  0  0  0  0
 34  9  1  0  0  0  0
 35  9  1  0  0  0  0
 10  9  1  0  0  0  0
 36 10  1  0  0  0  0
 37 10  1  0  0  0  0
 11 10  1  0  0  0  0
 38 11  1  0  0  0  0
 39 11  1  0  0  0  0
 40 12  1  0  0  0  0
 41 12  1  0  0  0  0
 14 13  1  0  0  0  0
 15 14  2  0  0  0  0
 16 14  1  0  0  0  0
 42 16  1  0  0  0  0
 43 16  1  0  0  0  0
 17 16  1  0  0  0  0
 18 17  1  0  0  0  0
 24 18  2  0  0  0  0
 19 18  1  0  0  0  0
 20 19  1  0  0  0  0
 44 20  1  0  0  0  0
 45 20  1  0  0  0  0
 46 20  1  0  0  0  0
 21 17  2  0  0  0  0
 47 21  1  0  0  0  0
 22 21  1  0  0  0  0
 23 22  2  0  0  0  0
 48 23  1  0  0  0  0
 49 24  1  0  0  0  0
 12 11  1  0  0  0  0
 13  8  1  0  0  0  0
 24 23  1  0  0  0  0
M  END
>  <FittedScore>
-29.57

$$$$
