A71EV2A-x4746a_lowest-energy
  FITTED

 39 40     0  0  0  0  0  0  0999 V2000
    9.1290   17.0752   20.1017 F    0  0  0  0  0  0  0  0  0  0  0  0
    9.5088   15.8197   19.7959 C    0  0  0  0  0  0  0  0  0  0  0  0
   10.5113   15.9035   18.9090 F    0  0  0  0  0  0  0  0  0  0  0  0
    9.9692   15.0399   21.0492 C    0  0  0  0  0  0  0  0  0  0  0  0
   11.2405   15.6415   21.7169 C    0  0  0  0  0  0  0  0  0  0  0  0
   11.6384   14.8067   22.9528 C    0  0  0  0  0  0  0  0  0  0  0  0
   10.4630   14.5278   23.9234 C    0  0  0  0  0  0  0  0  0  0  0  0
    8.8280   14.9529   22.0952 C    0  0  0  0  0  0  0  0  0  0  0  0
    9.1640   14.1144   23.2876 N    0  0  0  0  0  0  0  0  0  0  0  0
    8.2698   13.2041   23.8046 C    0  0  0  0  0  0  0  0  0  0  0  0
    7.2031   12.9946   23.2627 O    0  0  0  0  0  0  0  0  0  0  0  0
    8.5820   12.4949   25.1242 C    0  0  0  0  0  0  0  0  0  0  0  0
    7.3476   12.0106   25.8893 C    0  0  0  0  0  0  0  0  0  0  0  0
    6.4378   12.9052   26.5012 C    0  0  0  0  0  0  0  0  0  0  0  0
    6.5809   14.6854   26.3844 S    0  0  0  0  0  0  0  0  0  0  0  0
    7.6929   15.0461   27.7738 C    0  0  0  0  0  0  0  0  0  0  0  0
    7.1422   10.6204   26.0185 C    0  0  0  0  0  0  0  0  0  0  0  0
    6.0687   10.1327   26.7721 C    0  0  0  0  0  0  0  0  0  0  0  0
    5.1781   11.0177   27.3845 C    0  0  0  0  0  0  0  0  0  0  0  0
    5.3516   12.4017   27.2350 C    0  0  0  0  0  0  0  0  0  0  0  0
    8.6819   15.3065   19.3039 H    0  0  0  0  0  0  0  0  0  0  0  0
   10.2088   14.0221   20.7225 H    0  0  0  0  0  0  0  0  0  0  0  0
   12.0763   15.6866   21.0145 H    0  0  0  0  0  0  0  0  0  0  0  0
   11.0507   16.6723   22.0281 H    0  0  0  0  0  0  0  0  0  0  0  0
   12.0653   13.8561   22.6231 H    0  0  0  0  0  0  0  0  0  0  0  0
   12.4301   15.3232   23.4983 H    0  0  0  0  0  0  0  0  0  0  0  0
   10.8396   13.7646   24.6058 H    0  0  0  0  0  0  0  0  0  0  0  0
   10.2662   15.4160   24.5315 H    0  0  0  0  0  0  0  0  0  0  0  0
    7.9201   14.6104   21.5869 H    0  0  0  0  0  0  0  0  0  0  0  0
    8.5906   15.9583   22.4549 H    0  0  0  0  0  0  0  0  0  0  0  0
    9.2603   11.6654   24.9097 H    0  0  0  0  0  0  0  0  0  0  0  0
    9.1239   13.1538   25.8020 H    0  0  0  0  0  0  0  0  0  0  0  0
    7.9182   16.1131   27.8107 H    0  0  0  0  0  0  0  0  0  0  0  0
    8.6216   14.4903   27.6412 H    0  0  0  0  0  0  0  0  0  0  0  0
    7.2140   14.7347   28.7044 H    0  0  0  0  0  0  0  0  0  0  0  0
    7.8226    9.9154   25.5484 H    0  0  0  0  0  0  0  0  0  0  0  0
    5.9298    9.0584   26.8725 H    0  0  0  0  0  0  0  0  0  0  0  0
    4.3428   10.6371   27.9631 H    0  0  0  0  0  0  0  0  0  0  0  0
    4.6425   13.0836   27.6903 H    0  0  0  0  0  0  0  0  0  0  0  0
  9 10  1  0  0  0  0
  7  9  1  0  0  0  0
  6  7  1  0  0  0  0
  5  6  1  0  0  0  0
  4  5  1  0  0  0  0
  2  4  1  0  0  0  0
  1  2  1  0  0  0  0
 21  2  1  0  0  0  0
  3  2  1  0  0  0  0
 22  4  1  0  0  0  0
 23  5  1  0  0  0  0
 24  5  1  0  0  0  0
 25  6  1  0  0  0  0
 26  6  1  0  0  0  0
 27  7  1  0  0  0  0
 28  7  1  0  0  0  0
  8  4  1  0  0  0  0
 29  8  1  0  0  0  0
 30  8  1  0  0  0  0
 11 10  2  0  0  0  0
 12 10  1  0  0  0  0
 31 12  1  0  0  0  0
 32 12  1  0  0  0  0
 13 12  1  0  0  0  0
 14 13  1  0  0  0  0
 20 14  2  0  0  0  0
 15 14  1  0  0  0  0
 16 15  1  0  0  0  0
 33 16  1  0  0  0  0
 34 16  1  0  0  0  0
 35 16  1  0  0  0  0
 17 13  2  0  0  0  0
 36 17  1  0  0  0  0
 18 17  1  0  0  0  0
 37 18  1  0  0  0  0
 19 18  2  0  0  0  0
 38 19  1  0  0  0  0
 39 20  1  0  0  0  0
  9  8  1  0  0  0  0
 20 19  1  0  0  0  0
M  END
>  <FittedScore>
-26.84

$$$$
