A71EV2A-x4746a_best-RMSD
  FITTED

 39 40     0  0  0  0  0  0  0999 V2000
   10.8413   15.7172   18.8142 F    0  0  0  0  0  0  0  0  0  0  0  0
    9.7594   15.7291   19.6058 C    0  0  0  0  0  0  0  0  0  0  0  0
    9.4140   17.0133   19.8157 F    0  0  0  0  0  0  0  0  0  0  0  0
   10.0915   14.9967   20.9221 C    0  0  0  0  0  0  0  0  0  0  0  0
   11.3582   15.5139   21.6657 C    0  0  0  0  0  0  0  0  0  0  0  0
   11.5786   14.6950   22.9587 C    0  0  0  0  0  0  0  0  0  0  0  0
   10.3156   14.6167   23.8519 C    0  0  0  0  0  0  0  0  0  0  0  0
    8.8632   15.0569   21.8553 C    0  0  0  0  0  0  0  0  0  0  0  0
    9.0152   14.3465   23.1515 N    0  0  0  0  0  0  0  0  0  0  0  0
    7.9410   13.6945   23.6953 C    0  0  0  0  0  0  0  0  0  0  0  0
    7.0993   13.1748   22.9827 O    0  0  0  0  0  0  0  0  0  0  0  0
    7.7860   13.6066   25.2158 C    0  0  0  0  0  0  0  0  0  0  0  0
    7.3032   12.2303   25.6789 C    0  0  0  0  0  0  0  0  0  0  0  0
    7.8967   11.0085   25.2416 C    0  0  0  0  0  0  0  0  0  0  0  0
    9.3791   10.9881   24.1978 S    0  0  0  0  0  0  0  0  0  0  0  0
    9.6616    9.3391   23.5240 C    0  0  0  0  0  0  0  0  0  0  0  0
    6.2007   12.2066   26.5608 C    0  0  0  0  0  0  0  0  0  0  0  0
    5.6730   10.9933   27.0102 C    0  0  0  0  0  0  0  0  0  0  0  0
    6.2129    9.7954   26.5437 C    0  0  0  0  0  0  0  0  0  0  0  0
    7.2957    9.8078   25.6559 C    0  0  0  0  0  0  0  0  0  0  0  0
    8.9553   15.2202   19.0649 H    0  0  0  0  0  0  0  0  0  0  0  0
   10.2599   13.9463   20.6603 H    0  0  0  0  0  0  0  0  0  0  0  0
   12.2433   15.4107   21.0323 H    0  0  0  0  0  0  0  0  0  0  0  0
   11.2592   16.5779   21.9066 H    0  0  0  0  0  0  0  0  0  0  0  0
   11.9001   13.6835   22.6944 H    0  0  0  0  0  0  0  0  0  0  0  0
   12.3983   15.1361   23.5321 H    0  0  0  0  0  0  0  0  0  0  0  0
   10.5246   13.8302   24.5776 H    0  0  0  0  0  0  0  0  0  0  0  0
   10.2134   15.5436   24.4190 H    0  0  0  0  0  0  0  0  0  0  0  0
    8.0143   14.6832   21.2759 H    0  0  0  0  0  0  0  0  0  0  0  0
    8.6130   16.0936   22.0964 H    0  0  0  0  0  0  0  0  0  0  0  0
    8.6829   13.8297   25.7875 H    0  0  0  0  0  0  0  0  0  0  0  0
    7.0833   14.3983   25.4934 H    0  0  0  0  0  0  0  0  0  0  0  0
    8.7842    9.0106   22.9650 H    0  0  0  0  0  0  0  0  0  0  0  0
    9.8887    8.6368   24.3287 H    0  0  0  0  0  0  0  0  0  0  0  0
   10.5181    9.3927   22.8486 H    0  0  0  0  0  0  0  0  0  0  0  0
    5.7437   13.1306   26.9047 H    0  0  0  0  0  0  0  0  0  0  0  0
    4.8255   10.9885   27.6959 H    0  0  0  0  0  0  0  0  0  0  0  0
    5.7773    8.8495   26.8602 H    0  0  0  0  0  0  0  0  0  0  0  0
    7.6709    8.8511   25.3187 H    0  0  0  0  0  0  0  0  0  0  0  0
  9 10  1  0  0  0  0
  7  9  1  0  0  0  0
  6  7  1  0  0  0  0
  5  6  1  0  0  0  0
  4  5  1  0  0  0  0
  2  4  1  0  0  0  0
  1  2  1  0  0  0  0
 21  2  1  0  0  0  0
  3  2  1  0  0  0  0
 22  4  1  0  0  0  0
 23  5  1  0  0  0  0
 24  5  1  0  0  0  0
 25  6  1  0  0  0  0
 26  6  1  0  0  0  0
 27  7  1  0  0  0  0
 28  7  1  0  0  0  0
  8  4  1  0  0  0  0
 29  8  1  0  0  0  0
 30  8  1  0  0  0  0
 11 10  2  0  0  0  0
 12 10  1  0  0  0  0
 31 12  1  0  0  0  0
 32 12  1  0  0  0  0
 13 12  1  0  0  0  0
 14 13  1  0  0  0  0
 20 14  2  0  0  0  0
 15 14  1  0  0  0  0
 16 15  1  0  0  0  0
 33 16  1  0  0  0  0
 34 16  1  0  0  0  0
 35 16  1  0  0  0  0
 17 13  2  0  0  0  0
 36 17  1  0  0  0  0
 18 17  1  0  0  0  0
 37 18  1  0  0  0  0
 19 18  2  0  0  0  0
 38 19  1  0  0  0  0
 39 20  1  0  0  0  0
  9  8  1  0  0  0  0
 20 19  1  0  0  0  0
M  END
>  <FittedScore>
-27.71

$$$$
