A71EV2A-x4012b_best-RMSD
  FITTED

 39 40     0  0  0  0  0  0  0999 V2000
    9.8868   16.7983   19.4870 O    0  0  0  0  0  0  0  0  0  0  0  0
   10.3870   15.7372   19.8069 C    0  0  0  0  0  0  0  0  0  0  0  0
   10.7347   14.8446   18.8562 N    0  0  0  0  0  0  0  0  0  0  0  0
   10.4270   15.2239   21.2438 C    0  0  0  0  0  0  0  0  0  0  0  0
   11.4798   15.9778   22.1098 C    0  0  0  0  0  0  0  0  0  0  0  0
   11.4418   15.4790   23.5815 C    0  0  0  0  0  0  0  0  0  0  0  0
   10.0010   15.4153   24.1651 C    0  0  0  0  0  0  0  0  0  0  0  0
    9.0184   15.2889   21.9052 C    0  0  0  0  0  0  0  0  0  0  0  0
    9.0089   14.7037   23.2864 N    0  0  0  0  0  0  0  0  0  0  0  0
    8.2066   13.6365   23.6252 C    0  0  0  0  0  0  0  0  0  0  0  0
    7.4948   13.0761   22.8096 O    0  0  0  0  0  0  0  0  0  0  0  0
    8.2026   13.2310   24.9294 N    0  0  0  0  0  0  0  0  0  0  0  0
    7.5936   12.0346   25.4535 C    0  0  0  0  0  0  0  0  0  0  0  0
    7.9306   10.7447   24.9673 C    0  0  0  0  0  0  0  0  0  0  0  0
    8.9244   10.6342   23.9946 O    0  0  0  0  0  0  0  0  0  0  0  0
    9.5407    9.4147   23.5310 C    0  0  0  0  0  0  0  0  0  0  0  0
    6.6316   12.1684   26.4691 C    0  0  0  0  0  0  0  0  0  0  0  0
    5.9742   11.0380   26.9752 C    0  0  0  0  0  0  0  0  0  0  0  0
    6.2784    9.7677   26.4705 C    0  0  0  0  0  0  0  0  0  0  0  0
    7.2491    9.6196   25.4755 C    0  0  0  0  0  0  0  0  0  0  0  0
   10.6496   15.0915   17.8759 H    0  0  0  0  0  0  0  0  0  0  0  0
   10.9204   13.8760   19.1170 H    0  0  0  0  0  0  0  0  0  0  0  0
   10.7214   14.1654   21.2536 H    0  0  0  0  0  0  0  0  0  0  0  0
   12.4815   15.8129   21.6978 H    0  0  0  0  0  0  0  0  0  0  0  0
   11.3061   17.0589   22.0827 H    0  0  0  0  0  0  0  0  0  0  0  0
   11.9050   14.4904   23.6368 H    0  0  0  0  0  0  0  0  0  0  0  0
   12.0491   16.1400   24.2044 H    0  0  0  0  0  0  0  0  0  0  0  0
   10.0903   14.9594   25.1492 H    0  0  0  0  0  0  0  0  0  0  0  0
    9.6388   16.4301   24.3434 H    0  0  0  0  0  0  0  0  0  0  0  0
    8.3061   14.8011   21.2288 H    0  0  0  0  0  0  0  0  0  0  0  0
    8.6796   16.3253   21.9614 H    0  0  0  0  0  0  0  0  0  0  0  0
    8.6089   13.8390   25.6388 H    0  0  0  0  0  0  0  0  0  0  0  0
    8.8146    8.7413   23.0728 H    0  0  0  0  0  0  0  0  0  0  0  0
   10.0287    8.9213   24.3740 H    0  0  0  0  0  0  0  0  0  0  0  0
   10.2997    9.6759   22.7927 H    0  0  0  0  0  0  0  0  0  0  0  0
    6.3685   13.1498   26.8520 H    0  0  0  0  0  0  0  0  0  0  0  0
    5.2218   11.1446   27.7529 H    0  0  0  0  0  0  0  0  0  0  0  0
    5.7562    8.8913   26.8475 H    0  0  0  0  0  0  0  0  0  0  0  0
    7.4535    8.6191   25.0992 H    0  0  0  0  0  0  0  0  0  0  0  0
  9 10  1  0  0  0  0
  7  9  1  0  0  0  0
  6  7  1  0  0  0  0
  5  6  1  0  0  0  0
  4  5  1  0  0  0  0
  2  4  1  0  0  0  0
  1  2  2  0  0  0  0
  3  2  1  0  0  0  0
 21  3  1  0  0  0  0
 22  3  1  0  0  0  0
 23  4  1  0  0  0  0
 24  5  1  0  0  0  0
 25  5  1  0  0  0  0
 26  6  1  0  0  0  0
 27  6  1  0  0  0  0
 28  7  1  0  0  0  0
 29  7  1  0  0  0  0
  8  4  1  0  0  0  0
 30  8  1  0  0  0  0
 31  8  1  0  0  0  0
 11 10  2  0  0  0  0
 12 10  1  0  0  0  0
 32 12  1  0  0  0  0
 13 12  1  0  0  0  0
 14 13  1  0  0  0  0
 20 14  2  0  0  0  0
 15 14  1  0  0  0  0
 16 15  1  0  0  0  0
 33 16  1  0  0  0  0
 34 16  1  0  0  0  0
 35 16  1  0  0  0  0
 17 13  2  0  0  0  0
 36 17  1  0  0  0  0
 18 17  1  0  0  0  0
 37 18  1  0  0  0  0
 19 18  2  0  0  0  0
 38 19  1  0  0  0  0
 39 20  1  0  0  0  0
  9  8  1  0  0  0  0
 20 19  1  0  0  0  0
M  END
>  <FittedScore>
-36.34

$$$$
