A71EV2A-x5261a_lowest-energy
  FITTED

 44 46     0  0  0  0  0  0  0999 V2000
    9.4368    8.8825   23.3548 C    0  0  0  0  0  0  0  0  0  0  0  0
    9.4433   10.5642   24.0658 S    0  0  0  0  0  0  0  0  0  0  0  0
    7.9061   10.7811   24.9665 C    0  0  0  0  0  0  0  0  0  0  0  0
    7.2517    9.6610   25.5057 C    0  0  0  0  0  0  0  0  0  0  0  0
    6.0439    9.7920   26.1903 C    0  0  0  0  0  0  0  0  0  0  0  0
    5.4592   11.0552   26.3435 C    0  0  0  0  0  0  0  0  0  0  0  0
    4.2193   11.1899   26.9989 C    0  0  0  0  0  0  0  0  0  0  0  0
    3.6047   12.3936   27.1566 N    0  0  0  0  0  0  0  0  0  0  0  0
    4.2207   13.5058   26.6699 C    0  0  0  0  0  0  0  0  0  0  0  0
    5.4591   13.4548   26.0091 C    0  0  0  0  0  0  0  0  0  0  0  0
    6.1051   12.2111   25.8246 C    0  0  0  0  0  0  0  0  0  0  0  0
    7.3409   12.0716   25.1402 C    0  0  0  0  0  0  0  0  0  0  0  0
    8.0112   13.2247   24.5908 N    0  0  0  0  0  0  0  0  0  0  0  0
    7.8870   13.7104   23.3246 C    0  0  0  0  0  0  0  0  0  0  0  0
    7.0754   13.2141   22.5630 O    0  0  0  0  0  0  0  0  0  0  0  0
    8.7515   14.7143   22.9450 N    0  0  0  0  0  0  0  0  0  0  0  0
    9.6467   15.5319   23.8418 C    0  0  0  0  0  0  0  0  0  0  0  0
   11.1310   15.5761   23.3771 C    0  0  0  0  0  0  0  0  0  0  0  0
   11.2637   16.0128   21.8922 C    0  0  0  0  0  0  0  0  0  0  0  0
   10.3127   15.1894   20.9769 C    0  0  0  0  0  0  0  0  0  0  0  0
   10.3975   15.6580   19.5231 C    0  0  0  0  0  0  0  0  0  0  0  0
   10.9710   14.7960   18.6585 N    0  0  0  0  0  0  0  0  0  0  0  0
    9.8732   16.6746   19.1077 O    0  0  0  0  0  0  0  0  0  0  0  0
    8.8511   15.1973   21.5238 C    0  0  0  0  0  0  0  0  0  0  0  0
    9.5541    8.1460   24.1487 H    0  0  0  0  0  0  0  0  0  0  0  0
   10.2751    8.7810   22.6638 H    0  0  0  0  0  0  0  0  0  0  0  0
    8.5121    8.6988   22.8028 H    0  0  0  0  0  0  0  0  0  0  0  0
    7.6653    8.6623   25.4044 H    0  0  0  0  0  0  0  0  0  0  0  0
    5.5623    8.8988   26.5833 H    0  0  0  0  0  0  0  0  0  0  0  0
    3.7209   10.3037   27.3938 H    0  0  0  0  0  0  0  0  0  0  0  0
    3.7355   14.4707   26.7971 H    0  0  0  0  0  0  0  0  0  0  0  0
    5.8883   14.3849   25.6465 H    0  0  0  0  0  0  0  0  0  0  0  0
    8.7222   13.6167   25.1930 H    0  0  0  0  0  0  0  0  0  0  0  0
    9.6476   15.1932   24.8802 H    0  0  0  0  0  0  0  0  0  0  0  0
    9.2579   16.5549   23.8852 H    0  0  0  0  0  0  0  0  0  0  0  0
   11.5784   14.5855   23.5105 H    0  0  0  0  0  0  0  0  0  0  0  0
   11.6938   16.2669   24.0109 H    0  0  0  0  0  0  0  0  0  0  0  0
   12.2974   15.8703   21.5686 H    0  0  0  0  0  0  0  0  0  0  0  0
   11.0456   17.0819   21.8033 H    0  0  0  0  0  0  0  0  0  0  0  0
   10.6505   14.1469   21.0246 H    0  0  0  0  0  0  0  0  0  0  0  0
   10.9664   15.0070   17.6698 H    0  0  0  0  0  0  0  0  0  0  0  0
   11.1864   13.8426   18.9516 H    0  0  0  0  0  0  0  0  0  0  0  0
    8.2454   14.5985   20.8409 H    0  0  0  0  0  0  0  0  0  0  0  0
    8.4288   16.2053   21.4694 H    0  0  0  0  0  0  0  0  0  0  0  0
 13 14  1  0  0  0  0
 12 13  1  0  0  0  0
 11 12  2  0  0  0  0
 10 11  1  0  0  0  0
  9 10  2  0  0  0  0
  8  9  1  0  0  0  0
  7  8  2  0  0  0  0
  6  7  1  0  0  0  0
  5  6  2  0  0  0  0
  4  5  1  0  0  0  0
  3  4  2  0  0  0  0
  2  3  1  0  0  0  0
  1  2  1  0  0  0  0
 25  1  1  0  0  0  0
 26  1  1  0  0  0  0
 27  1  1  0  0  0  0
 28  4  1  0  0  0  0
 29  5  1  0  0  0  0
 30  7  1  0  0  0  0
 31  9  1  0  0  0  0
 32 10  1  0  0  0  0
 33 13  1  0  0  0  0
 15 14  2  0  0  0  0
 16 14  1  0  0  0  0
 17 16  1  0  0  0  0
 18 17  1  0  0  0  0
 34 17  1  0  0  0  0
 35 17  1  0  0  0  0
 19 18  1  0  0  0  0
 36 18  1  0  0  0  0
 37 18  1  0  0  0  0
 20 19  1  0  0  0  0
 38 19  1  0  0  0  0
 39 19  1  0  0  0  0
 21 20  1  0  0  0  0
 24 20  1  0  0  0  0
 40 20  1  0  0  0  0
 22 21  1  0  0  0  0
 23 21  2  0  0  0  0
 41 22  1  0  0  0  0
 42 22  1  0  0  0  0
 43 24  1  0  0  0  0
 44 24  1  0  0  0  0
 11  6  1  0  0  0  0
 12  3  1  0  0  0  0
 24 16  1  0  0  0  0
M  END
>  <FittedScore>
-34.51

$$$$
