A71EV2A-x5261a_best-RMSD
  FITTED

 44 46     0  0  0  0  0  0  0999 V2000
    9.3494    8.8070   23.4111 C    0  0  0  0  0  0  0  0  0  0  0  0
    9.3847   10.5230   24.0294 S    0  0  0  0  0  0  0  0  0  0  0  0
    7.9060   10.8107   25.0166 C    0  0  0  0  0  0  0  0  0  0  0  0
    7.1653    9.7268   25.5269 C    0  0  0  0  0  0  0  0  0  0  0  0
    6.0328    9.9338   26.3149 C    0  0  0  0  0  0  0  0  0  0  0  0
    5.6203   11.2356   26.6240 C    0  0  0  0  0  0  0  0  0  0  0  0
    4.4728   11.4484   27.4125 C    0  0  0  0  0  0  0  0  0  0  0  0
    4.0376   12.6961   27.7434 N    0  0  0  0  0  0  0  0  0  0  0  0
    4.7434   13.7700   27.2979 C    0  0  0  0  0  0  0  0  0  0  0  0
    5.8916   13.6421   26.4993 C    0  0  0  0  0  0  0  0  0  0  0  0
    6.3539   12.3534   26.1391 C    0  0  0  0  0  0  0  0  0  0  0  0
    7.4874   12.1353   25.3129 C    0  0  0  0  0  0  0  0  0  0  0  0
    8.1816   13.2601   24.7351 N    0  0  0  0  0  0  0  0  0  0  0  0
    8.0584   13.6928   23.4437 C    0  0  0  0  0  0  0  0  0  0  0  0
    7.2814   13.1336   22.6840 O    0  0  0  0  0  0  0  0  0  0  0  0
    8.8420   14.7562   23.0403 N    0  0  0  0  0  0  0  0  0  0  0  0
    9.7045   15.6311   23.9120 C    0  0  0  0  0  0  0  0  0  0  0  0
   11.1819   15.7366   23.4370 C    0  0  0  0  0  0  0  0  0  0  0  0
   11.2942   16.1431   21.9404 C    0  0  0  0  0  0  0  0  0  0  0  0
   10.3803   15.2522   21.0447 C    0  0  0  0  0  0  0  0  0  0  0  0
   10.4383   15.6863   19.5717 C    0  0  0  0  0  0  0  0  0  0  0  0
   10.9389   14.7881   18.7005 N    0  0  0  0  0  0  0  0  0  0  0  0
   10.0428   16.7578   19.1540 O    0  0  0  0  0  0  0  0  0  0  0  0
    8.9199   15.2142   21.6058 C    0  0  0  0  0  0  0  0  0  0  0  0
   10.2049    8.6440   22.7516 H    0  0  0  0  0  0  0  0  0  0  0  0
    8.4268    8.6317   22.8517 H    0  0  0  0  0  0  0  0  0  0  0  0
    9.4256    8.1131   24.2488 H    0  0  0  0  0  0  0  0  0  0  0  0
    7.4544    8.7030   25.3316 H    0  0  0  0  0  0  0  0  0  0  0  0
    5.4812    9.0712   26.6839 H    0  0  0  0  0  0  0  0  0  0  0  0
    3.9045   10.5942   27.7765 H    0  0  0  0  0  0  0  0  0  0  0  0
    4.4019   14.7667   27.5650 H    0  0  0  0  0  0  0  0  0  0  0  0
    6.3968   14.5479   26.1719 H    0  0  0  0  0  0  0  0  0  0  0  0
    8.7218   13.7989   25.4088 H    0  0  0  0  0  0  0  0  0  0  0  0
    9.7232   15.3065   24.9535 H    0  0  0  0  0  0  0  0  0  0  0  0
    9.2661   16.6343   23.9331 H    0  0  0  0  0  0  0  0  0  0  0  0
   11.6813   14.7758   23.5946 H    0  0  0  0  0  0  0  0  0  0  0  0
   11.7087   16.4715   24.0524 H    0  0  0  0  0  0  0  0  0  0  0  0
   12.3338   16.0402   21.6202 H    0  0  0  0  0  0  0  0  0  0  0  0
   11.0348   17.2018   21.8292 H    0  0  0  0  0  0  0  0  0  0  0  0
   10.7649   14.2278   21.1323 H    0  0  0  0  0  0  0  0  0  0  0  0
   10.9155   14.9933   17.7056 H    0  0  0  0  0  0  0  0  0  0  0  0
   11.1845   13.8521   19.0117 H    0  0  0  0  0  0  0  0  0  0  0  0
    8.3327   14.5781   20.9389 H    0  0  0  0  0  0  0  0  0  0  0  0
    8.4617   16.2058   21.5311 H    0  0  0  0  0  0  0  0  0  0  0  0
 13 14  1  0  0  0  0
 12 13  1  0  0  0  0
 11 12  2  0  0  0  0
 10 11  1  0  0  0  0
  9 10  2  0  0  0  0
  8  9  1  0  0  0  0
  7  8  2  0  0  0  0
  6  7  1  0  0  0  0
  5  6  2  0  0  0  0
  4  5  1  0  0  0  0
  3  4  2  0  0  0  0
  2  3  1  0  0  0  0
  1  2  1  0  0  0  0
 25  1  1  0  0  0  0
 26  1  1  0  0  0  0
 27  1  1  0  0  0  0
 28  4  1  0  0  0  0
 29  5  1  0  0  0  0
 30  7  1  0  0  0  0
 31  9  1  0  0  0  0
 32 10  1  0  0  0  0
 33 13  1  0  0  0  0
 15 14  2  0  0  0  0
 16 14  1  0  0  0  0
 17 16  1  0  0  0  0
 18 17  1  0  0  0  0
 34 17  1  0  0  0  0
 35 17  1  0  0  0  0
 19 18  1  0  0  0  0
 36 18  1  0  0  0  0
 37 18  1  0  0  0  0
 20 19  1  0  0  0  0
 38 19  1  0  0  0  0
 39 19  1  0  0  0  0
 21 20  1  0  0  0  0
 24 20  1  0  0  0  0
 40 20  1  0  0  0  0
 22 21  1  0  0  0  0
 23 21  2  0  0  0  0
 41 22  1  0  0  0  0
 42 22  1  0  0  0  0
 43 24  1  0  0  0  0
 44 24  1  0  0  0  0
 11  6  1  0  0  0  0
 12  3  1  0  0  0  0
 24 16  1  0  0  0  0
M  END
>  <FittedScore>
-34.38

$$$$
