A71EV2A-x4967b_best-RMSD
  FITTED

 49 51     0  0  0  0  0  0  0999 V2000
    9.6289   16.6636   19.4420 O    0  0  0  0  0  0  0  0  0  0  0  0
   10.1744   15.6276   19.7759 C    0  0  0  0  0  0  0  0  0  0  0  0
   10.6366   14.7692   18.8505 N    0  0  0  0  0  0  0  0  0  0  0  0
   10.2897   15.1422   21.2166 C    0  0  0  0  0  0  0  0  0  0  0  0
    8.9438   15.2800   21.9940 C    0  0  0  0  0  0  0  0  0  0  0  0
   11.5211   15.7751   21.9513 C    0  0  0  0  0  0  0  0  0  0  0  0
   11.1656   16.3212   23.3650 C    0  0  0  0  0  0  0  0  0  0  0  0
   10.1840   15.3596   24.1525 C    0  0  0  0  0  0  0  0  0  0  0  0
    9.6806   16.1510   25.4033 C    0  0  0  0  0  0  0  0  0  0  0  0
   10.8706   16.5013   26.3403 C    0  0  0  0  0  0  0  0  0  0  0  0
   12.0317   17.2484   25.6134 C    0  0  0  0  0  0  0  0  0  0  0  0
   12.4223   16.6263   24.2372 C    0  0  0  0  0  0  0  0  0  0  0  0
    9.0687   14.7021   23.3657 N    0  0  0  0  0  0  0  0  0  0  0  0
    8.3572   13.5798   23.7634 C    0  0  0  0  0  0  0  0  0  0  0  0
    7.4544   13.1172   23.0794 O    0  0  0  0  0  0  0  0  0  0  0  0
    8.8433   12.7935   24.9950 C    0  0  0  0  0  0  0  0  0  0  0  0
    7.9614   11.6012   25.3620 C    0  0  0  0  0  0  0  0  0  0  0  0
    8.1611   10.3266   24.7922 C    0  0  0  0  0  0  0  0  0  0  0  0
    9.2254   10.1450   23.9168 O    0  0  0  0  0  0  0  0  0  0  0  0
    9.5788    8.8918   23.2984 C    0  0  0  0  0  0  0  0  0  0  0  0
    6.8885   11.7819   26.2582 C    0  0  0  0  0  0  0  0  0  0  0  0
    6.0280   10.7810   26.5885 N    0  0  0  0  0  0  0  0  0  0  0  0
    6.2044    9.5639   26.0141 C    0  0  0  0  0  0  0  0  0  0  0  0
    7.2596    9.2985   25.1296 C    0  0  0  0  0  0  0  0  0  0  0  0
   10.9154   13.8326   19.1415 H    0  0  0  0  0  0  0  0  0  0  0  0
   10.5632   14.9887   17.8691 H    0  0  0  0  0  0  0  0  0  0  0  0
   10.4817   14.0609   21.2043 H    0  0  0  0  0  0  0  0  0  0  0  0
    8.6287   16.3260   22.0660 H    0  0  0  0  0  0  0  0  0  0  0  0
    8.1633   14.7941   21.4041 H    0  0  0  0  0  0  0  0  0  0  0  0
   11.9616   16.5859   21.3624 H    0  0  0  0  0  0  0  0  0  0  0  0
   12.2995   15.0115   22.0344 H    0  0  0  0  0  0  0  0  0  0  0  0
   10.6659   17.2839   23.1904 H    0  0  0  0  0  0  0  0  0  0  0  0
   10.8274   14.5445   24.4956 H    0  0  0  0  0  0  0  0  0  0  0  0
    9.1686   17.0672   25.0899 H    0  0  0  0  0  0  0  0  0  0  0  0
    8.9422   15.5953   25.9802 H    0  0  0  0  0  0  0  0  0  0  0  0
   10.5008   17.1232   27.1594 H    0  0  0  0  0  0  0  0  0  0  0  0
   11.2590   15.5851   26.7987 H    0  0  0  0  0  0  0  0  0  0  0  0
   11.7451   18.2946   25.4706 H    0  0  0  0  0  0  0  0  0  0  0  0
   12.9094   17.2580   26.2654 H    0  0  0  0  0  0  0  0  0  0  0  0
   13.0880   17.3202   23.7139 H    0  0  0  0  0  0  0  0  0  0  0  0
   12.9936   15.7066   24.4007 H    0  0  0  0  0  0  0  0  0  0  0  0
    9.8693   12.4600   24.8152 H    0  0  0  0  0  0  0  0  0  0  0  0
    8.9026   13.4182   25.8842 H    0  0  0  0  0  0  0  0  0  0  0  0
    9.8344    8.1614   24.0692 H    0  0  0  0  0  0  0  0  0  0  0  0
   10.4490    9.0485   22.6581 H    0  0  0  0  0  0  0  0  0  0  0  0
    8.7574    8.5163   22.6807 H    0  0  0  0  0  0  0  0  0  0  0  0
    6.7247   12.7614   26.6981 H    0  0  0  0  0  0  0  0  0  0  0  0
    5.5045    8.7629   26.2417 H    0  0  0  0  0  0  0  0  0  0  0  0
    7.3576    8.2959   24.7254 H    0  0  0  0  0  0  0  0  0  0  0  0
  5 13  1  0  0  0  0
  4  5  1  0  0  0  0
  2  4  1  0  0  0  0
  1  2  2  0  0  0  0
  3  2  1  0  0  0  0
 25  3  1  0  0  0  0
 26  3  1  0  0  0  0
 27  4  1  0  0  0  0
 28  5  1  0  0  0  0
 29  5  1  0  0  0  0
  6  4  1  0  0  0  0
 30  6  1  0  0  0  0
 31  6  1  0  0  0  0
  7  6  1  0  0  0  0
 12  7  1  0  0  0  0
 32  7  1  0  0  0  0
  8  7  1  0  0  0  0
  9  8  1  0  0  0  0
 33  8  1  0  0  0  0
 34  9  1  0  0  0  0
 35  9  1  0  0  0  0
 10  9  1  0  0  0  0
 36 10  1  0  0  0  0
 37 10  1  0  0  0  0
 11 10  1  0  0  0  0
 38 11  1  0  0  0  0
 39 11  1  0  0  0  0
 40 12  1  0  0  0  0
 41 12  1  0  0  0  0
 14 13  1  0  0  0  0
 15 14  2  0  0  0  0
 16 14  1  0  0  0  0
 42 16  1  0  0  0  0
 43 16  1  0  0  0  0
 17 16  1  0  0  0  0
 18 17  1  0  0  0  0
 24 18  2  0  0  0  0
 19 18  1  0  0  0  0
 20 19  1  0  0  0  0
 44 20  1  0  0  0  0
 45 20  1  0  0  0  0
 46 20  1  0  0  0  0
 21 17  2  0  0  0  0
 47 21  1  0  0  0  0
 22 21  1  0  0  0  0
 23 22  2  0  0  0  0
 48 23  1  0  0  0  0
 49 24  1  0  0  0  0
 12 11  1  0  0  0  0
 13  8  1  0  0  0  0
 24 23  1  0  0  0  0
M  END
>  <FittedScore>
-32.33

$$$$
