A71EV2A-x5479a_best-RMSD
  FITTED

 42 44     0  0  0  0  0  0  0999 V2000
    8.9738   10.2827   23.9543 C    0  0  0  0  0  0  0  0  0  0  0  0
    7.7925   10.6892   24.8407 C    0  0  0  0  0  0  0  0  0  0  0  0
    7.0391    9.6982   25.4949 C    0  0  0  0  0  0  0  0  0  0  0  0
    5.9706   10.0373   26.3283 C    0  0  0  0  0  0  0  0  0  0  0  0
    5.5875   11.3809   26.4684 C    0  0  0  0  0  0  0  0  0  0  0  0
    4.4760   11.7268   27.2603 C    0  0  0  0  0  0  0  0  0  0  0  0
    4.1000   13.0763   27.3537 C    0  0  0  0  0  0  0  0  0  0  0  0
    4.8463   14.0410   26.6621 C    0  0  0  0  0  0  0  0  0  0  0  0
    5.9270   13.7158   25.9043 N    0  0  0  0  0  0  0  0  0  0  0  0
    6.3115   12.4053   25.7986 C    0  0  0  0  0  0  0  0  0  0  0  0
    7.4344   12.0454   25.0175 C    0  0  0  0  0  0  0  0  0  0  0  0
    8.2009   13.0437   24.4316 O    0  0  0  0  0  0  0  0  0  0  0  0
    7.9605   13.5745   23.2034 C    0  0  0  0  0  0  0  0  0  0  0  0
    7.0808   13.1306   22.4804 O    0  0  0  0  0  0  0  0  0  0  0  0
    8.7929   14.5931   22.8171 N    0  0  0  0  0  0  0  0  0  0  0  0
    9.7808   15.2970   23.7122 C    0  0  0  0  0  0  0  0  0  0  0  0
   11.2184   15.3754   23.1255 C    0  0  0  0  0  0  0  0  0  0  0  0
   11.2182   15.9591   21.6965 C    0  0  0  0  0  0  0  0  0  0  0  0
   10.2098   15.1676   20.8116 C    0  0  0  0  0  0  0  0  0  0  0  0
   10.2282   15.6892   19.3855 C    0  0  0  0  0  0  0  0  0  0  0  0
   11.1207   15.0966   18.5754 N    0  0  0  0  0  0  0  0  0  0  0  0
    9.5386   16.5980   18.9644 O    0  0  0  0  0  0  0  0  0  0  0  0
    8.7856   15.1786   21.4442 C    0  0  0  0  0  0  0  0  0  0  0  0
    9.9034   10.7016   24.3466 H    0  0  0  0  0  0  0  0  0  0  0  0
    8.8320   10.6475   22.9359 H    0  0  0  0  0  0  0  0  0  0  0  0
    9.1011    9.1993   23.8941 H    0  0  0  0  0  0  0  0  0  0  0  0
    7.2939    8.6488   25.3767 H    0  0  0  0  0  0  0  0  0  0  0  0
    5.4260    9.2474   26.8425 H    0  0  0  0  0  0  0  0  0  0  0  0
    3.9010   10.9702   27.7875 H    0  0  0  0  0  0  0  0  0  0  0  0
    3.2405   13.3680   27.9519 H    0  0  0  0  0  0  0  0  0  0  0  0
    4.5541   15.0856   26.7321 H    0  0  0  0  0  0  0  0  0  0  0  0
    9.8646   14.8313   24.6994 H    0  0  0  0  0  0  0  0  0  0  0  0
    9.4190   16.3119   23.9056 H    0  0  0  0  0  0  0  0  0  0  0  0
   11.6591   14.3715   23.1070 H    0  0  0  0  0  0  0  0  0  0  0  0
   11.8526   15.9873   23.7720 H    0  0  0  0  0  0  0  0  0  0  0  0
   12.2225   15.8844   21.2738 H    0  0  0  0  0  0  0  0  0  0  0  0
   10.9626   17.0230   21.7162 H    0  0  0  0  0  0  0  0  0  0  0  0
   10.5214   14.1129   20.7983 H    0  0  0  0  0  0  0  0  0  0  0  0
   11.1526   15.3613   17.6031 H    0  0  0  0  0  0  0  0  0  0  0  0
   11.7598   14.3914   18.9127 H    0  0  0  0  0  0  0  0  0  0  0  0
    8.1169   14.6454   20.7670 H    0  0  0  0  0  0  0  0  0  0  0  0
    8.3889   16.1964   21.5004 H    0  0  0  0  0  0  0  0  0  0  0  0
 12 13  1  0  0  0  0
 11 12  1  0  0  0  0
 10 11  2  0  0  0  0
  9 10  1  0  0  0  0
  8  9  2  0  0  0  0
  7  8  1  0  0  0  0
  6  7  2  0  0  0  0
  5  6  1  0  0  0  0
  4  5  2  0  0  0  0
  3  4  1  0  0  0  0
  2  3  2  0  0  0  0
  1  2  1  0  0  0  0
 24  1  1  0  0  0  0
 25  1  1  0  0  0  0
 26  1  1  0  0  0  0
 27  3  1  0  0  0  0
 28  4  1  0  0  0  0
 29  6  1  0  0  0  0
 30  7  1  0  0  0  0
 31  8  1  0  0  0  0
 14 13  2  0  0  0  0
 15 13  1  0  0  0  0
 16 15  1  0  0  0  0
 17 16  1  0  0  0  0
 32 16  1  0  0  0  0
 33 16  1  0  0  0  0
 18 17  1  0  0  0  0
 34 17  1  0  0  0  0
 35 17  1  0  0  0  0
 19 18  1  0  0  0  0
 36 18  1  0  0  0  0
 37 18  1  0  0  0  0
 20 19  1  0  0  0  0
 23 19  1  0  0  0  0
 38 19  1  0  0  0  0
 21 20  1  0  0  0  0
 22 20  2  0  0  0  0
 39 21  1  0  0  0  0
 40 21  1  0  0  0  0
 41 23  1  0  0  0  0
 42 23  1  0  0  0  0
 10  5  1  0  0  0  0
 11  2  1  0  0  0  0
 23 15  1  0  0  0  0
M  END
>  <FittedScore>
-29.76

$$$$
