A71EV2A-x5479a_lowest-energy
  FITTED

 42 44     0  0  0  0  0  0  0999 V2000
    9.1620   10.3554   23.7781 C    0  0  0  0  0  0  0  0  0  0  0  0
    7.9737   10.6823   24.6769 C    0  0  0  0  0  0  0  0  0  0  0  0
    7.2484    9.6318   25.2597 C    0  0  0  0  0  0  0  0  0  0  0  0
    6.1934    9.8914   26.1365 C    0  0  0  0  0  0  0  0  0  0  0  0
    5.8094   11.2138   26.4012 C    0  0  0  0  0  0  0  0  0  0  0  0
    4.7465   11.4786   27.2804 C    0  0  0  0  0  0  0  0  0  0  0  0
    4.3549   12.8066   27.4924 C    0  0  0  0  0  0  0  0  0  0  0  0
    5.0305   13.8350   26.8175 C    0  0  0  0  0  0  0  0  0  0  0  0
    6.0807   13.5899   25.9868 N    0  0  0  0  0  0  0  0  0  0  0  0
    6.4864   12.3000   25.7771 C    0  0  0  0  0  0  0  0  0  0  0  0
    7.5894   12.0137   24.9427 C    0  0  0  0  0  0  0  0  0  0  0  0
    8.3024   13.0662   24.3801 O    0  0  0  0  0  0  0  0  0  0  0  0
    7.9849   13.6221   23.1798 C    0  0  0  0  0  0  0  0  0  0  0  0
    7.1240   13.1399   22.4595 O    0  0  0  0  0  0  0  0  0  0  0  0
    8.7366   14.7047   22.8017 N    0  0  0  0  0  0  0  0  0  0  0  0
    9.6916   15.4640   23.6818 C    0  0  0  0  0  0  0  0  0  0  0  0
   11.1522   15.4782   23.1436 C    0  0  0  0  0  0  0  0  0  0  0  0
   11.2213   15.9237   21.6580 C    0  0  0  0  0  0  0  0  0  0  0  0
   10.2057   15.1052   20.8124 C    0  0  0  0  0  0  0  0  0  0  0  0
   10.2820   15.5062   19.3501 C    0  0  0  0  0  0  0  0  0  0  0  0
   10.8733   14.6122   18.5515 N    0  0  0  0  0  0  0  0  0  0  0  0
    9.8206   16.5295   18.8930 O    0  0  0  0  0  0  0  0  0  0  0  0
    8.7710   15.2281   21.4002 C    0  0  0  0  0  0  0  0  0  0  0  0
    9.4444    9.3000   23.8233 H    0  0  0  0  0  0  0  0  0  0  0  0
   10.0340   10.9389   24.0809 H    0  0  0  0  0  0  0  0  0  0  0  0
    8.9215   10.5969   22.7425 H    0  0  0  0  0  0  0  0  0  0  0  0
    7.5200    8.5968   25.0596 H    0  0  0  0  0  0  0  0  0  0  0  0
    5.6631    9.0541   26.5914 H    0  0  0  0  0  0  0  0  0  0  0  0
    4.2245   10.6710   27.7842 H    0  0  0  0  0  0  0  0  0  0  0  0
    3.5356   13.0308   28.1685 H    0  0  0  0  0  0  0  0  0  0  0  0
    4.7145   14.8646   26.9693 H    0  0  0  0  0  0  0  0  0  0  0  0
    9.7137   15.0769   24.7035 H    0  0  0  0  0  0  0  0  0  0  0  0
    9.3338   16.4931   23.7764 H    0  0  0  0  0  0  0  0  0  0  0  0
   11.5817   14.4741   23.2326 H    0  0  0  0  0  0  0  0  0  0  0  0
   11.7656   16.1467   23.7522 H    0  0  0  0  0  0  0  0  0  0  0  0
   12.2305   15.7603   21.2725 H    0  0  0  0  0  0  0  0  0  0  0  0
   11.0139   16.9959   21.5697 H    0  0  0  0  0  0  0  0  0  0  0  0
   10.4793   14.0430   20.9064 H    0  0  0  0  0  0  0  0  0  0  0  0
   11.1491   13.7006   18.9169 H    0  0  0  0  0  0  0  0  0  0  0  0
   10.9820   14.8270   17.5662 H    0  0  0  0  0  0  0  0  0  0  0  0
    8.0759   14.7046   20.7402 H    0  0  0  0  0  0  0  0  0  0  0  0
    8.4424   16.2734   21.3954 H    0  0  0  0  0  0  0  0  0  0  0  0
 12 13  1  0  0  0  0
 11 12  1  0  0  0  0
 10 11  2  0  0  0  0
  9 10  1  0  0  0  0
  8  9  2  0  0  0  0
  7  8  1  0  0  0  0
  6  7  2  0  0  0  0
  5  6  1  0  0  0  0
  4  5  2  0  0  0  0
  3  4  1  0  0  0  0
  2  3  2  0  0  0  0
  1  2  1  0  0  0  0
 24  1  1  0  0  0  0
 25  1  1  0  0  0  0
 26  1  1  0  0  0  0
 27  3  1  0  0  0  0
 28  4  1  0  0  0  0
 29  6  1  0  0  0  0
 30  7  1  0  0  0  0
 31  8  1  0  0  0  0
 14 13  2  0  0  0  0
 15 13  1  0  0  0  0
 16 15  1  0  0  0  0
 17 16  1  0  0  0  0
 32 16  1  0  0  0  0
 33 16  1  0  0  0  0
 18 17  1  0  0  0  0
 34 17  1  0  0  0  0
 35 17  1  0  0  0  0
 19 18  1  0  0  0  0
 36 18  1  0  0  0  0
 37 18  1  0  0  0  0
 20 19  1  0  0  0  0
 23 19  1  0  0  0  0
 38 19  1  0  0  0  0
 21 20  1  0  0  0  0
 22 20  2  0  0  0  0
 39 21  1  0  0  0  0
 40 21  1  0  0  0  0
 41 23  1  0  0  0  0
 42 23  1  0  0  0  0
 10  5  1  0  0  0  0
 11  2  1  0  0  0  0
 23 15  1  0  0  0  0
M  END
>  <FittedScore>
-29.90

$$$$
