A71EV2A-x4883a_best-RMSD
  FITTED

 38 39     0  0  0  0  0  0  0999 V2000
    9.8224   16.7018   19.4074 O    0  0  0  0  0  0  0  0  0  0  0  0
   10.2855   15.6240   19.7345 C    0  0  0  0  0  0  0  0  0  0  0  0
   10.7441   14.7621   18.8018 N    0  0  0  0  0  0  0  0  0  0  0  0
   10.2424   15.0888   21.1693 C    0  0  0  0  0  0  0  0  0  0  0  0
   11.3385   15.7513   22.0601 C    0  0  0  0  0  0  0  0  0  0  0  0
   11.2396   15.2756   23.5374 C    0  0  0  0  0  0  0  0  0  0  0  0
    9.7870   15.3567   24.0840 C    0  0  0  0  0  0  0  0  0  0  0  0
    8.8316   15.2346   21.8191 C    0  0  0  0  0  0  0  0  0  0  0  0
    8.7955   14.6481   23.1984 N    0  0  0  0  0  0  0  0  0  0  0  0
    8.0329   13.5424   23.5102 C    0  0  0  0  0  0  0  0  0  0  0  0
    7.3405   12.9728   22.6860 O    0  0  0  0  0  0  0  0  0  0  0  0
    8.0594   13.0995   24.7962 N    0  0  0  0  0  0  0  0  0  0  0  0
    7.4896   11.8888   25.3101 C    0  0  0  0  0  0  0  0  0  0  0  0
    7.8960   10.5975   24.8777 C    0  0  0  0  0  0  0  0  0  0  0  0
    9.3186   10.4018   23.8065 S    0  0  0  0  0  0  0  0  0  0  0  0
    9.4658    8.6210   23.4672 C    0  0  0  0  0  0  0  0  0  0  0  0
    6.4705   11.9976   26.2716 C    0  0  0  0  0  0  0  0  0  0  0  0
    5.8366   10.8368   26.7313 C    0  0  0  0  0  0  0  0  0  0  0  0
    6.2337    9.5974   26.2113 C    0  0  0  0  0  0  0  0  0  0  0  0
    7.2433    9.4773   25.3045 N    0  0  0  0  0  0  0  0  0  0  0  0
   10.7578   15.0273   17.8229 H    0  0  0  0  0  0  0  0  0  0  0  0
   10.8999   13.7894   19.0619 H    0  0  0  0  0  0  0  0  0  0  0  0
   10.4551   14.0124   21.1571 H    0  0  0  0  0  0  0  0  0  0  0  0
   12.3268   15.4966   21.6679 H    0  0  0  0  0  0  0  0  0  0  0  0
   11.2469   16.8414   22.0186 H    0  0  0  0  0  0  0  0  0  0  0  0
   11.5978   14.2449   23.6133 H    0  0  0  0  0  0  0  0  0  0  0  0
   11.8987   15.8881   24.1581 H    0  0  0  0  0  0  0  0  0  0  0  0
    9.7975   14.9737   25.1054 H    0  0  0  0  0  0  0  0  0  0  0  0
    9.4954   16.4083   24.1803 H    0  0  0  0  0  0  0  0  0  0  0  0
    8.1000   14.7798   21.1440 H    0  0  0  0  0  0  0  0  0  0  0  0
    8.5446   16.2912   21.8664 H    0  0  0  0  0  0  0  0  0  0  0  0
    8.4010   13.7269   25.5170 H    0  0  0  0  0  0  0  0  0  0  0  0
    9.6377    8.0754   24.3975 H    0  0  0  0  0  0  0  0  0  0  0  0
   10.3120    8.4488   22.8002 H    0  0  0  0  0  0  0  0  0  0  0  0
    8.5563    8.2522   22.9873 H    0  0  0  0  0  0  0  0  0  0  0  0
    6.1600   12.9695   26.6468 H    0  0  0  0  0  0  0  0  0  0  0  0
    5.0448   10.8961   27.4746 H    0  0  0  0  0  0  0  0  0  0  0  0
    5.7298    8.6968   26.5557 H    0  0  0  0  0  0  0  0  0  0  0  0
  9 10  1  0  0  0  0
  7  9  1  0  0  0  0
  6  7  1  0  0  0  0
  5  6  1  0  0  0  0
  4  5  1  0  0  0  0
  2  4  1  0  0  0  0
  1  2  2  0  0  0  0
  3  2  1  0  0  0  0
 21  3  1  0  0  0  0
 22  3  1  0  0  0  0
 23  4  1  0  0  0  0
 24  5  1  0  0  0  0
 25  5  1  0  0  0  0
 26  6  1  0  0  0  0
 27  6  1  0  0  0  0
 28  7  1  0  0  0  0
 29  7  1  0  0  0  0
  8  4  1  0  0  0  0
 30  8  1  0  0  0  0
 31  8  1  0  0  0  0
 11 10  2  0  0  0  0
 12 10  1  0  0  0  0
 32 12  1  0  0  0  0
 13 12  1  0  0  0  0
 14 13  1  0  0  0  0
 20 14  2  0  0  0  0
 15 14  1  0  0  0  0
 16 15  1  0  0  0  0
 33 16  1  0  0  0  0
 34 16  1  0  0  0  0
 35 16  1  0  0  0  0
 17 13  2  0  0  0  0
 36 17  1  0  0  0  0
 18 17  1  0  0  0  0
 37 18  1  0  0  0  0
 19 18  2  0  0  0  0
 38 19  1  0  0  0  0
  9  8  1  0  0  0  0
 20 19  1  0  0  0  0
M  END
>  <FittedScore>
-36.45

$$$$
