A71EV2A-x4883a_lowest-energy
  FITTED

 38 39     0  0  0  0  0  0  0999 V2000
    9.6630   16.6662   19.3708 O    0  0  0  0  0  0  0  0  0  0  0  0
   10.1869   15.6321   19.7416 C    0  0  0  0  0  0  0  0  0  0  0  0
   10.7117   14.7734   18.8428 N    0  0  0  0  0  0  0  0  0  0  0  0
   10.1732   15.1495   21.1901 C    0  0  0  0  0  0  0  0  0  0  0  0
   11.2348   15.8987   22.0457 C    0  0  0  0  0  0  0  0  0  0  0  0
   11.1933   15.4122   23.5215 C    0  0  0  0  0  0  0  0  0  0  0  0
    9.7464   15.3789   24.1057 C    0  0  0  0  0  0  0  0  0  0  0  0
    8.7647   15.2737   21.8475 C    0  0  0  0  0  0  0  0  0  0  0  0
    8.7529   14.6728   23.2184 N    0  0  0  0  0  0  0  0  0  0  0  0
    8.0160   13.5435   23.5126 C    0  0  0  0  0  0  0  0  0  0  0  0
    7.3255   12.9766   22.6882 O    0  0  0  0  0  0  0  0  0  0  0  0
    8.0347   13.0884   24.7931 N    0  0  0  0  0  0  0  0  0  0  0  0
    7.4558   11.8728   25.3008 C    0  0  0  0  0  0  0  0  0  0  0  0
    7.8761   10.5794   24.8841 C    0  0  0  0  0  0  0  0  0  0  0  0
    9.3052   10.3845   23.8198 S    0  0  0  0  0  0  0  0  0  0  0  0
    9.4543    8.6118   23.4425 C    0  0  0  0  0  0  0  0  0  0  0  0
    6.4138   11.9774   26.2406 C    0  0  0  0  0  0  0  0  0  0  0  0
    5.7789   10.8148   26.6974 C    0  0  0  0  0  0  0  0  0  0  0  0
    6.2038    9.5736   26.2027 C    0  0  0  0  0  0  0  0  0  0  0  0
    7.2299    9.4568   25.3170 N    0  0  0  0  0  0  0  0  0  0  0  0
   10.9499   13.8251   19.1315 H    0  0  0  0  0  0  0  0  0  0  0  0
   10.7149   15.0090   17.8590 H    0  0  0  0  0  0  0  0  0  0  0  0
   10.4328   14.0837   21.2124 H    0  0  0  0  0  0  0  0  0  0  0  0
   12.2319   15.7293   21.6321 H    0  0  0  0  0  0  0  0  0  0  0  0
   11.0584   16.9778   22.0066 H    0  0  0  0  0  0  0  0  0  0  0  0
   11.6336   14.4120   23.5794 H    0  0  0  0  0  0  0  0  0  0  0  0
   11.8208   16.0680   24.1297 H    0  0  0  0  0  0  0  0  0  0  0  0
    9.8108   14.9413   25.1040 H    0  0  0  0  0  0  0  0  0  0  0  0
    9.4093   16.4081   24.2723 H    0  0  0  0  0  0  0  0  0  0  0  0
    8.0275   14.8262   21.1774 H    0  0  0  0  0  0  0  0  0  0  0  0
    8.4666   16.3238   21.9178 H    0  0  0  0  0  0  0  0  0  0  0  0
    8.3530   13.7176   25.5184 H    0  0  0  0  0  0  0  0  0  0  0  0
    8.5529    8.2544   22.9398 H    0  0  0  0  0  0  0  0  0  0  0  0
    9.6122    8.0464   24.3635 H    0  0  0  0  0  0  0  0  0  0  0  0
   10.3116    8.4538   22.7885 H    0  0  0  0  0  0  0  0  0  0  0  0
    6.0865   12.9500   26.5998 H    0  0  0  0  0  0  0  0  0  0  0  0
    4.9638   10.8734   27.4148 H    0  0  0  0  0  0  0  0  0  0  0  0
    5.7060    8.6701   26.5486 H    0  0  0  0  0  0  0  0  0  0  0  0
  9 10  1  0  0  0  0
  7  9  1  0  0  0  0
  6  7  1  0  0  0  0
  5  6  1  0  0  0  0
  4  5  1  0  0  0  0
  2  4  1  0  0  0  0
  1  2  2  0  0  0  0
  3  2  1  0  0  0  0
 21  3  1  0  0  0  0
 22  3  1  0  0  0  0
 23  4  1  0  0  0  0
 24  5  1  0  0  0  0
 25  5  1  0  0  0  0
 26  6  1  0  0  0  0
 27  6  1  0  0  0  0
 28  7  1  0  0  0  0
 29  7  1  0  0  0  0
  8  4  1  0  0  0  0
 30  8  1  0  0  0  0
 31  8  1  0  0  0  0
 11 10  2  0  0  0  0
 12 10  1  0  0  0  0
 32 12  1  0  0  0  0
 13 12  1  0  0  0  0
 14 13  1  0  0  0  0
 20 14  2  0  0  0  0
 15 14  1  0  0  0  0
 16 15  1  0  0  0  0
 33 16  1  0  0  0  0
 34 16  1  0  0  0  0
 35 16  1  0  0  0  0
 17 13  2  0  0  0  0
 36 17  1  0  0  0  0
 18 17  1  0  0  0  0
 37 18  1  0  0  0  0
 19 18  2  0  0  0  0
 38 19  1  0  0  0  0
  9  8  1  0  0  0  0
 20 19  1  0  0  0  0
M  END
>  <FittedScore>
-37.16

$$$$
