A71EV2A-x4926a_lowest-energy
  FITTED

 39 41     0  0  0  0  0  0  0999 V2000
    9.6583   11.6933   22.7460 F    0  0  0  0  0  0  0  0  0  0  0  0
    8.7744   11.3720   23.6908 C    0  0  0  0  0  0  0  0  0  0  0  0
    8.7069   10.0016   24.0012 C    0  0  0  0  0  0  0  0  0  0  0  0
    7.7635    9.5392   24.9241 C    0  0  0  0  0  0  0  0  0  0  0  0
    6.9823   10.4809   25.5877 C    0  0  0  0  0  0  0  0  0  0  0  0
    7.0407   11.8358   25.2915 C    0  0  0  0  0  0  0  0  0  0  0  0
    6.0768   12.5798   26.1479 N    0  0  0  0  0  0  0  0  0  0  0  0
    6.0618   10.3152   26.5535 N    0  0  0  0  0  0  0  0  0  0  0  0
    5.4512   11.4729   26.9190 C    0  0  0  0  0  0  0  0  0  0  0  0
    4.3053   11.6100   27.9004 C    0  0  0  0  0  0  0  0  0  0  0  0
    7.8979   12.3257   24.2849 C    0  0  0  0  0  0  0  0  0  0  0  0
    7.7960   13.8087   23.8546 C    0  0  0  0  0  0  0  0  0  0  0  0
    9.0482   14.4156   23.3122 N    0  0  0  0  0  0  0  0  0  0  0  0
   10.1936   14.5305   24.0647 C    0  0  0  0  0  0  0  0  0  0  0  0
   10.2539   14.0770   25.1898 O    0  0  0  0  0  0  0  0  0  0  0  0
   11.4748   15.0996   23.4349 C    0  0  0  0  0  0  0  0  0  0  0  0
   11.3217   15.7103   22.0174 C    0  0  0  0  0  0  0  0  0  0  0  0
   10.3559   14.8534   21.1654 C    0  0  0  0  0  0  0  0  0  0  0  0
    8.9733   14.7829   21.8699 C    0  0  0  0  0  0  0  0  0  0  0  0
   10.2763   15.3275   19.7087 C    0  0  0  0  0  0  0  0  0  0  0  0
    9.5622   16.2323   19.3140 O    0  0  0  0  0  0  0  0  0  0  0  0
   10.9906   14.6073   18.8235 N    0  0  0  0  0  0  0  0  0  0  0  0
    9.3718    9.2971   23.5074 H    0  0  0  0  0  0  0  0  0  0  0  0
    7.6816    8.4781   25.1451 H    0  0  0  0  0  0  0  0  0  0  0  0
    5.6777    9.3998   26.7764 H    0  0  0  0  0  0  0  0  0  0  0  0
    4.1920   12.6476   28.2219 H    0  0  0  0  0  0  0  0  0  0  0  0
    4.4732   10.9907   28.7865 H    0  0  0  0  0  0  0  0  0  0  0  0
    3.3707   11.2886   27.4342 H    0  0  0  0  0  0  0  0  0  0  0  0
    7.5058   14.4306   24.7066 H    0  0  0  0  0  0  0  0  0  0  0  0
    6.9608   13.8935   23.1537 H    0  0  0  0  0  0  0  0  0  0  0  0
   11.8795   15.8595   24.1062 H    0  0  0  0  0  0  0  0  0  0  0  0
   12.2199   14.3013   23.3940 H    0  0  0  0  0  0  0  0  0  0  0  0
   10.9301   16.7270   22.1043 H    0  0  0  0  0  0  0  0  0  0  0  0
   12.2982   15.7918   21.5406 H    0  0  0  0  0  0  0  0  0  0  0  0
   10.7496   13.8273   21.1646 H    0  0  0  0  0  0  0  0  0  0  0  0
    8.4781   15.7555   21.7917 H    0  0  0  0  0  0  0  0  0  0  0  0
    8.3650   14.0613   21.3162 H    0  0  0  0  0  0  0  0  0  0  0  0
   10.9702   14.8483   17.8360 H    0  0  0  0  0  0  0  0  0  0  0  0
   11.3521   13.6960   19.1099 H    0  0  0  0  0  0  0  0  0  0  0  0
 11 12  1  0  0  0  0
  6 11  1  0  0  0  0
  5  6  2  0  0  0  0
  4  5  1  0  0  0  0
  3  4  2  0  0  0  0
  2  3  1  0  0  0  0
  1  2  1  0  0  0  0
 23  3  1  0  0  0  0
 24  4  1  0  0  0  0
  7  6  1  0  0  0  0
  8  5  1  0  0  0  0
 25  8  1  0  0  0  0
  9  7  2  0  0  0  0
 10  9  1  0  0  0  0
 26 10  1  0  0  0  0
 27 10  1  0  0  0  0
 28 10  1  0  0  0  0
 29 12  1  0  0  0  0
 30 12  1  0  0  0  0
 13 12  1  0  0  0  0
 19 13  1  0  0  0  0
 14 13  1  0  0  0  0
 15 14  2  0  0  0  0
 16 14  1  0  0  0  0
 31 16  1  0  0  0  0
 32 16  1  0  0  0  0
 17 16  1  0  0  0  0
 33 17  1  0  0  0  0
 34 17  1  0  0  0  0
 18 17  1  0  0  0  0
 20 18  1  0  0  0  0
 35 18  1  0  0  0  0
 36 19  1  0  0  0  0
 37 19  1  0  0  0  0
 21 20  2  0  0  0  0
 22 20  1  0  0  0  0
 38 22  1  0  0  0  0
 39 22  1  0  0  0  0
  9  8  1  0  0  0  0
 11  2  2  0  0  0  0
 19 18  1  0  0  0  0
M  END
>  <FittedScore>
-38.66

$$$$
