A71EV2A-x4926a_best-RMSD
  FITTED

 39 41     0  0  0  0  0  0  0999 V2000
    9.4154   11.6587   22.9470 F    0  0  0  0  0  0  0  0  0  0  0  0
    8.5133   11.4760   23.9203 C    0  0  0  0  0  0  0  0  0  0  0  0
    8.3749   10.1479   24.3732 C    0  0  0  0  0  0  0  0  0  0  0  0
    7.4268    9.8208   25.3509 C    0  0  0  0  0  0  0  0  0  0  0  0
    6.6649   10.8548   25.8843 C    0  0  0  0  0  0  0  0  0  0  0  0
    6.7621   12.1617   25.4298 C    0  0  0  0  0  0  0  0  0  0  0  0
    5.7584   13.0032   26.1464 N    0  0  0  0  0  0  0  0  0  0  0  0
    5.7202   10.8270   26.8425 N    0  0  0  0  0  0  0  0  0  0  0  0
    5.0795   12.0098   27.0143 C    0  0  0  0  0  0  0  0  0  0  0  0
    3.8399   12.2727   27.8532 C    0  0  0  0  0  0  0  0  0  0  0  0
    7.6803   12.5223   24.4127 C    0  0  0  0  0  0  0  0  0  0  0  0
    7.6837   13.9825   23.8867 C    0  0  0  0  0  0  0  0  0  0  0  0
    8.9599   14.4748   23.2729 N    0  0  0  0  0  0  0  0  0  0  0  0
   10.1266   14.5992   23.9973 C    0  0  0  0  0  0  0  0  0  0  0  0
   10.1971   14.2121   25.1416 O    0  0  0  0  0  0  0  0  0  0  0  0
   11.4219   15.0906   23.3194 C    0  0  0  0  0  0  0  0  0  0  0  0
   11.2585   15.6899   21.9016 C    0  0  0  0  0  0  0  0  0  0  0  0
   10.2574   14.8322   21.0921 C    0  0  0  0  0  0  0  0  0  0  0  0
    8.8753   14.7731   21.8108 C    0  0  0  0  0  0  0  0  0  0  0  0
   10.1929   15.2866   19.6351 C    0  0  0  0  0  0  0  0  0  0  0  0
    9.5325   16.2299   19.2480 O    0  0  0  0  0  0  0  0  0  0  0  0
   10.9333   14.5724   18.7658 N    0  0  0  0  0  0  0  0  0  0  0  0
    9.0020    9.3686   23.9544 H    0  0  0  0  0  0  0  0  0  0  0  0
    7.3189    8.7967   25.6931 H    0  0  0  0  0  0  0  0  0  0  0  0
    5.4240    9.9700   27.2929 H    0  0  0  0  0  0  0  0  0  0  0  0
    2.9612   12.4062   27.2154 H    0  0  0  0  0  0  0  0  0  0  0  0
    3.9619   13.1741   28.4568 H    0  0  0  0  0  0  0  0  0  0  0  0
    3.6364   11.4403   28.5316 H    0  0  0  0  0  0  0  0  0  0  0  0
    7.4770   14.6681   24.7122 H    0  0  0  0  0  0  0  0  0  0  0  0
    6.8296   14.1004   23.2173 H    0  0  0  0  0  0  0  0  0  0  0  0
   11.9093   15.8303   23.9611 H    0  0  0  0  0  0  0  0  0  0  0  0
   12.1080   14.2407   23.2595 H    0  0  0  0  0  0  0  0  0  0  0  0
   10.9020   16.7229   21.9762 H    0  0  0  0  0  0  0  0  0  0  0  0
   12.2327   15.7226   21.4009 H    0  0  0  0  0  0  0  0  0  0  0  0
   10.6453   13.7986   21.1020 H    0  0  0  0  0  0  0  0  0  0  0  0
    8.3328   15.7146   21.6808 H    0  0  0  0  0  0  0  0  0  0  0  0
    8.2855   13.9975   21.3162 H    0  0  0  0  0  0  0  0  0  0  0  0
   10.9577   14.8215   17.7859 H    0  0  0  0  0  0  0  0  0  0  0  0
   11.2975   13.6638   19.0550 H    0  0  0  0  0  0  0  0  0  0  0  0
 11 12  1  0  0  0  0
  6 11  1  0  0  0  0
  5  6  2  0  0  0  0
  4  5  1  0  0  0  0
  3  4  2  0  0  0  0
  2  3  1  0  0  0  0
  1  2  1  0  0  0  0
 23  3  1  0  0  0  0
 24  4  1  0  0  0  0
  7  6  1  0  0  0  0
  8  5  1  0  0  0  0
 25  8  1  0  0  0  0
  9  7  2  0  0  0  0
 10  9  1  0  0  0  0
 26 10  1  0  0  0  0
 27 10  1  0  0  0  0
 28 10  1  0  0  0  0
 29 12  1  0  0  0  0
 30 12  1  0  0  0  0
 13 12  1  0  0  0  0
 19 13  1  0  0  0  0
 14 13  1  0  0  0  0
 15 14  2  0  0  0  0
 16 14  1  0  0  0  0
 31 16  1  0  0  0  0
 32 16  1  0  0  0  0
 17 16  1  0  0  0  0
 33 17  1  0  0  0  0
 34 17  1  0  0  0  0
 18 17  1  0  0  0  0
 20 18  1  0  0  0  0
 35 18  1  0  0  0  0
 36 19  1  0  0  0  0
 37 19  1  0  0  0  0
 21 20  2  0  0  0  0
 22 20  1  0  0  0  0
 38 22  1  0  0  0  0
 39 22  1  0  0  0  0
  9  8  1  0  0  0  0
 11  2  2  0  0  0  0
 19 18  1  0  0  0  0
M  END
>  <FittedScore>
-36.64

$$$$
