A71EV2A-x5488a_lowest-energy
  FITTED

 47 48     0  0  0  0  0  0  0999 V2000
    7.1582   13.4874   22.7604 O    0  0  0  0  0  0  0  0  0  0  0  0
    8.1018   13.8174   23.4675 C    0  0  0  0  0  0  0  0  0  0  0  0
    9.1582   14.5769   22.9689 N    0  0  0  0  0  0  0  0  0  0  0  0
    9.2293   14.9677   21.5229 C    0  0  0  0  0  0  0  0  0  0  0  0
    9.8011   16.3979   21.2072 C    0  0  0  0  0  0  0  0  0  0  0  0
    8.8925   17.6026   21.5201 C    0  0  0  0  0  0  0  0  0  0  0  0
    9.1467   18.7022   21.0753 O    0  0  0  0  0  0  0  0  0  0  0  0
    7.8191   17.4609   22.3339 N    0  0  0  0  0  0  0  0  0  0  0  0
   11.1880   16.5774   21.8868 C    0  0  0  0  0  0  0  0  0  0  0  0
   11.0693   16.3187   23.4064 C    0  0  0  0  0  0  0  0  0  0  0  0
   10.4336   14.9229   23.7278 C    0  0  0  0  0  0  0  0  0  0  0  0
   11.5022   13.7859   23.6013 C    0  0  0  0  0  0  0  0  0  0  0  0
   11.9816   13.3481   24.8983 O    0  0  0  0  0  0  0  0  0  0  0  0
   13.0226   14.1001   25.5722 C    0  0  0  0  0  0  0  0  0  0  0  0
    8.1347   13.3397   24.9363 C    0  0  0  0  0  0  0  0  0  0  0  0
    7.3612   12.0517   25.2824 C    0  0  0  0  0  0  0  0  0  0  0  0
    7.7618   10.7694   24.8131 C    0  0  0  0  0  0  0  0  0  0  0  0
    9.1700   10.6119   23.7189 S    0  0  0  0  0  0  0  0  0  0  0  0
    9.4866    8.8463   23.4166 C    0  0  0  0  0  0  0  0  0  0  0  0
    7.0375    9.6322   25.2265 C    0  0  0  0  0  0  0  0  0  0  0  0
    5.9586    9.7483   26.1008 C    0  0  0  0  0  0  0  0  0  0  0  0
    5.5743   11.0013   26.5808 C    0  0  0  0  0  0  0  0  0  0  0  0
    6.2651   12.1468   26.1656 C    0  0  0  0  0  0  0  0  0  0  0  0
    9.8465   14.2202   21.0067 H    0  0  0  0  0  0  0  0  0  0  0  0
    8.2541   14.9043   21.0320 H    0  0  0  0  0  0  0  0  0  0  0  0
    9.9735   16.4355   20.1271 H    0  0  0  0  0  0  0  0  0  0  0  0
    7.5526   16.5498   22.6843 H    0  0  0  0  0  0  0  0  0  0  0  0
    7.1829   18.2524   22.4116 H    0  0  0  0  0  0  0  0  0  0  0  0
   11.9136   15.8874   21.4406 H    0  0  0  0  0  0  0  0  0  0  0  0
   11.5874   17.5804   21.7111 H    0  0  0  0  0  0  0  0  0  0  0  0
   12.0564   16.4224   23.8652 H    0  0  0  0  0  0  0  0  0  0  0  0
   10.4615   17.1049   23.8634 H    0  0  0  0  0  0  0  0  0  0  0  0
   10.1865   15.0474   24.7822 H    0  0  0  0  0  0  0  0  0  0  0  0
   11.0664   12.9031   23.1218 H    0  0  0  0  0  0  0  0  0  0  0  0
   12.3491   14.0619   22.9647 H    0  0  0  0  0  0  0  0  0  0  0  0
   13.9118   14.1872   24.9414 H    0  0  0  0  0  0  0  0  0  0  0  0
   13.3024   13.5668   26.4828 H    0  0  0  0  0  0  0  0  0  0  0  0
   12.6631   15.0928   25.8489 H    0  0  0  0  0  0  0  0  0  0  0  0
    7.7766   14.1725   25.5474 H    0  0  0  0  0  0  0  0  0  0  0  0
    9.1481   13.1357   25.2793 H    0  0  0  0  0  0  0  0  0  0  0  0
   10.3378    8.7476   22.7404 H    0  0  0  0  0  0  0  0  0  0  0  0
    8.6147    8.3770   22.9539 H    0  0  0  0  0  0  0  0  0  0  0  0
    9.7279    8.3481   24.3601 H    0  0  0  0  0  0  0  0  0  0  0  0
    7.2808    8.6377   24.8753 H    0  0  0  0  0  0  0  0  0  0  0  0
    5.4082    8.8577   26.4014 H    0  0  0  0  0  0  0  0  0  0  0  0
    4.7251   11.0863   27.2552 H    0  0  0  0  0  0  0  0  0  0  0  0
    5.9476   13.1138   26.5479 H    0  0  0  0  0  0  0  0  0  0  0  0
  3  2  1  0  0  0  0
  4  3  1  0  0  0  0
 24  4  1  0  0  0  0
  1  2  2  0  0  0  0
 25  4  1  0  0  0  0
  5  4  1  0  0  0  0
  6  5  1  0  0  0  0
 26  5  1  0  0  0  0
  7  6  2  0  0  0  0
  8  6  1  0  0  0  0
 27  8  1  0  0  0  0
 28  8  1  0  0  0  0
  9  5  1  0  0  0  0
 29  9  1  0  0  0  0
 30  9  1  0  0  0  0
 10  9  1  0  0  0  0
 31 10  1  0  0  0  0
 32 10  1  0  0  0  0
 11 10  1  0  0  0  0
 12 11  1  0  0  0  0
 33 11  1  0  0  0  0
 34 12  1  0  0  0  0
 35 12  1  0  0  0  0
 13 12  1  0  0  0  0
 14 13  1  0  0  0  0
 36 14  1  0  0  0  0
 37 14  1  0  0  0  0
 38 14  1  0  0  0  0
 15  2  1  0  0  0  0
 39 15  1  0  0  0  0
 40 15  1  0  0  0  0
 16 15  1  0  0  0  0
 23 16  2  0  0  0  0
 17 16  1  0  0  0  0
 18 17  1  0  0  0  0
 19 18  1  0  0  0  0
 41 19  1  0  0  0  0
 42 19  1  0  0  0  0
 43 19  1  0  0  0  0
 20 17  2  0  0  0  0
 44 20  1  0  0  0  0
 21 20  1  0  0  0  0
 45 21  1  0  0  0  0
 22 21  2  0  0  0  0
 46 22  1  0  0  0  0
 47 23  1  0  0  0  0
 11  3  1  0  0  0  0
 23 22  1  0  0  0  0
M  END
>  <FittedScore>
-32.54

$$$$
