A71EV2A-x5488a_best-RMSD
  FITTED

 47 48     0  0  0  0  0  0  0999 V2000
    7.4015   13.3189   22.8880 O    0  0  0  0  0  0  0  0  0  0  0  0
    8.2223   13.8496   23.6276 C    0  0  0  0  0  0  0  0  0  0  0  0
    9.0184   14.9059   23.1840 N    0  0  0  0  0  0  0  0  0  0  0  0
    9.0180   15.3306   21.7332 C    0  0  0  0  0  0  0  0  0  0  0  0
   10.4259   15.2294   21.0635 C    0  0  0  0  0  0  0  0  0  0  0  0
   10.4221   15.6756   19.5980 C    0  0  0  0  0  0  0  0  0  0  0  0
    9.9701   16.7281   19.1906 O    0  0  0  0  0  0  0  0  0  0  0  0
   10.8916   14.7654   18.7317 N    0  0  0  0  0  0  0  0  0  0  0  0
   11.5332   15.9743   21.8613 C    0  0  0  0  0  0  0  0  0  0  0  0
   11.4722   15.5802   23.3587 C    0  0  0  0  0  0  0  0  0  0  0  0
   10.0240   15.7998   23.9210 C    0  0  0  0  0  0  0  0  0  0  0  0
   10.0555   15.9229   25.4729 C    0  0  0  0  0  0  0  0  0  0  0  0
   10.8666   17.0676   25.8547 O    0  0  0  0  0  0  0  0  0  0  0  0
   11.0248   17.3631   27.2654 C    0  0  0  0  0  0  0  0  0  0  0  0
    8.3732   13.2765   25.0508 C    0  0  0  0  0  0  0  0  0  0  0  0
    7.5663   11.9998   25.3781 C    0  0  0  0  0  0  0  0  0  0  0  0
    7.9398   10.7073   24.9211 C    0  0  0  0  0  0  0  0  0  0  0  0
    9.3903   10.5112   23.8886 S    0  0  0  0  0  0  0  0  0  0  0  0
    9.6535    8.7394   23.5678 C    0  0  0  0  0  0  0  0  0  0  0  0
    7.1564    9.5933   25.2933 C    0  0  0  0  0  0  0  0  0  0  0  0
    6.0336    9.7399   26.1122 C    0  0  0  0  0  0  0  0  0  0  0  0
    5.6648   11.0117   26.5614 C    0  0  0  0  0  0  0  0  0  0  0  0
    6.4204   12.1301   26.1921 C    0  0  0  0  0  0  0  0  0  0  0  0
    8.3387   14.7403   21.1145 H    0  0  0  0  0  0  0  0  0  0  0  0
    8.6370   16.3502   21.6519 H    0  0  0  0  0  0  0  0  0  0  0  0
   10.6881   14.1644   21.1178 H    0  0  0  0  0  0  0  0  0  0  0  0
   10.8832   14.9661   17.7346 H    0  0  0  0  0  0  0  0  0  0  0  0
   11.0713   13.8114   19.0440 H    0  0  0  0  0  0  0  0  0  0  0  0
   12.5187   15.7212   21.4588 H    0  0  0  0  0  0  0  0  0  0  0  0
   11.4184   17.0587   21.7545 H    0  0  0  0  0  0  0  0  0  0  0  0
   11.7673   14.5332   23.4823 H    0  0  0  0  0  0  0  0  0  0  0  0
   12.2259   16.1736   23.8806 H    0  0  0  0  0  0  0  0  0  0  0  0
    9.7472   16.8269   23.6489 H    0  0  0  0  0  0  0  0  0  0  0  0
    9.0464   16.0924   25.8555 H    0  0  0  0  0  0  0  0  0  0  0  0
   10.4778   15.0252   25.9342 H    0  0  0  0  0  0  0  0  0  0  0  0
   10.0492   17.5228   27.7324 H    0  0  0  0  0  0  0  0  0  0  0  0
   11.6155   18.2737   27.3665 H    0  0  0  0  0  0  0  0  0  0  0  0
   11.5458   16.5463   27.7698 H    0  0  0  0  0  0  0  0  0  0  0  0
    8.0628   14.0482   25.7551 H    0  0  0  0  0  0  0  0  0  0  0  0
    9.4250   13.0783   25.2597 H    0  0  0  0  0  0  0  0  0  0  0  0
    9.7708    8.1999   24.5117 H    0  0  0  0  0  0  0  0  0  0  0  0
   10.5715    8.6045   22.9900 H    0  0  0  0  0  0  0  0  0  0  0  0
    8.8121    8.3333   23.0034 H    0  0  0  0  0  0  0  0  0  0  0  0
    7.4019    8.5904   24.9652 H    0  0  0  0  0  0  0  0  0  0  0  0
    5.4485    8.8665   26.3866 H    0  0  0  0  0  0  0  0  0  0  0  0
    4.7929   11.1323   27.1954 H    0  0  0  0  0  0  0  0  0  0  0  0
    6.1080   13.1094   26.5477 H    0  0  0  0  0  0  0  0  0  0  0  0
  3  2  1  0  0  0  0
  4  3  1  0  0  0  0
 24  4  1  0  0  0  0
  1  2  2  0  0  0  0
 25  4  1  0  0  0  0
  5  4  1  0  0  0  0
  6  5  1  0  0  0  0
 26  5  1  0  0  0  0
  7  6  2  0  0  0  0
  8  6  1  0  0  0  0
 27  8  1  0  0  0  0
 28  8  1  0  0  0  0
  9  5  1  0  0  0  0
 29  9  1  0  0  0  0
 30  9  1  0  0  0  0
 10  9  1  0  0  0  0
 31 10  1  0  0  0  0
 32 10  1  0  0  0  0
 11 10  1  0  0  0  0
 12 11  1  0  0  0  0
 33 11  1  0  0  0  0
 34 12  1  0  0  0  0
 35 12  1  0  0  0  0
 13 12  1  0  0  0  0
 14 13  1  0  0  0  0
 36 14  1  0  0  0  0
 37 14  1  0  0  0  0
 38 14  1  0  0  0  0
 15  2  1  0  0  0  0
 39 15  1  0  0  0  0
 40 15  1  0  0  0  0
 16 15  1  0  0  0  0
 23 16  2  0  0  0  0
 17 16  1  0  0  0  0
 18 17  1  0  0  0  0
 19 18  1  0  0  0  0
 41 19  1  0  0  0  0
 42 19  1  0  0  0  0
 43 19  1  0  0  0  0
 20 17  2  0  0  0  0
 44 20  1  0  0  0  0
 21 20  1  0  0  0  0
 45 21  1  0  0  0  0
 22 21  2  0  0  0  0
 46 22  1  0  0  0  0
 47 23  1  0  0  0  0
 11  3  1  0  0  0  0
 23 22  1  0  0  0  0
M  END
>  <FittedScore>
-32.53

$$$$
