A71EV2A-x4334a_best-RMSD
  FITTED

 40 41     0  0  0  0  0  0  0999 V2000
   10.0122   16.9258   19.1246 O    0  0  0  0  0  0  0  0  0  0  0  0
   10.4448   15.8672   19.5418 C    0  0  0  0  0  0  0  0  0  0  0  0
   10.8209   14.8930   18.6918 N    0  0  0  0  0  0  0  0  0  0  0  0
   10.4282   15.4667   21.0121 C    0  0  0  0  0  0  0  0  0  0  0  0
   11.5522   16.1784   21.8275 C    0  0  0  0  0  0  0  0  0  0  0  0
   11.4795   15.7927   23.3338 C    0  0  0  0  0  0  0  0  0  0  0  0
   10.0391   15.9285   23.8962 C    0  0  0  0  0  0  0  0  0  0  0  0
    9.0336   15.6905   21.6736 C    0  0  0  0  0  0  0  0  0  0  0  0
    9.0389   15.1665   23.0740 N    0  0  0  0  0  0  0  0  0  0  0  0
    8.4125   13.9885   23.4227 C    0  0  0  0  0  0  0  0  0  0  0  0
    7.6217   13.4446   22.6662 O    0  0  0  0  0  0  0  0  0  0  0  0
    8.8824   13.2630   24.6910 C    0  0  0  0  0  0  0  0  0  0  0  0
    8.3531   11.8414   24.8182 C    0  0  0  0  0  0  0  0  0  0  0  0
    8.9543   10.7899   24.1006 C    0  0  0  0  0  0  0  0  0  0  0  0
    8.4279    9.4937   24.1928 C    0  0  0  0  0  0  0  0  0  0  0  0
    7.3119    9.2496   25.0065 C    0  0  0  0  0  0  0  0  0  0  0  0
    7.2263   11.5913   25.6200 C    0  0  0  0  0  0  0  0  0  0  0  0
    6.7154   10.2927   25.7350 C    0  0  0  0  0  0  0  0  0  0  0  0
    5.2935    9.9527   26.7362 S    0  0  0  0  0  0  0  0  0  0  0  0
    5.4583   10.9395   28.2608 C    0  0  0  0  0  0  0  0  0  0  0  0
   10.9730   13.9435   19.0312 H    0  0  0  0  0  0  0  0  0  0  0  0
   10.8268   15.0722   17.6923 H    0  0  0  0  0  0  0  0  0  0  0  0
   10.6267   14.3882   21.0835 H    0  0  0  0  0  0  0  0  0  0  0  0
   12.5290   15.8919   21.4306 H    0  0  0  0  0  0  0  0  0  0  0  0
   11.4719   17.2631   21.7206 H    0  0  0  0  0  0  0  0  0  0  0  0
   11.8282   14.7663   23.4682 H    0  0  0  0  0  0  0  0  0  0  0  0
   12.1555   16.4311   23.9057 H    0  0  0  0  0  0  0  0  0  0  0  0
   10.0369   15.6517   24.9497 H    0  0  0  0  0  0  0  0  0  0  0  0
    9.7546   16.9858   23.9079 H    0  0  0  0  0  0  0  0  0  0  0  0
    8.2666   15.2257   21.0472 H    0  0  0  0  0  0  0  0  0  0  0  0
    8.7751   16.7548   21.6815 H    0  0  0  0  0  0  0  0  0  0  0  0
    9.9752   13.2127   24.7089 H    0  0  0  0  0  0  0  0  0  0  0  0
    8.5884   13.8436   25.5717 H    0  0  0  0  0  0  0  0  0  0  0  0
    9.8224   10.9710   23.4662 H    0  0  0  0  0  0  0  0  0  0  0  0
    8.8847    8.6801   23.6326 H    0  0  0  0  0  0  0  0  0  0  0  0
    6.9130    8.2404   25.0744 H    0  0  0  0  0  0  0  0  0  0  0  0
    6.7461   12.4200   26.1339 H    0  0  0  0  0  0  0  0  0  0  0  0
    6.4070   10.7164   28.7499 H    0  0  0  0  0  0  0  0  0  0  0  0
    4.6449   10.6755   28.9380 H    0  0  0  0  0  0  0  0  0  0  0  0
    5.3990   12.0096   28.0473 H    0  0  0  0  0  0  0  0  0  0  0  0
  9 10  1  0  0  0  0
  7  9  1  0  0  0  0
  6  7  1  0  0  0  0
  5  6  1  0  0  0  0
  4  5  1  0  0  0  0
  2  4  1  0  0  0  0
  1  2  2  0  0  0  0
  3  2  1  0  0  0  0
 21  3  1  0  0  0  0
 22  3  1  0  0  0  0
 23  4  1  0  0  0  0
 24  5  1  0  0  0  0
 25  5  1  0  0  0  0
 26  6  1  0  0  0  0
 27  6  1  0  0  0  0
 28  7  1  0  0  0  0
 29  7  1  0  0  0  0
  8  4  1  0  0  0  0
 30  8  1  0  0  0  0
 31  8  1  0  0  0  0
 11 10  2  0  0  0  0
 12 10  1  0  0  0  0
 32 12  1  0  0  0  0
 33 12  1  0  0  0  0
 13 12  1  0  0  0  0
 14 13  1  0  0  0  0
 34 14  1  0  0  0  0
 15 14  2  0  0  0  0
 35 15  1  0  0  0  0
 16 15  1  0  0  0  0
 36 16  1  0  0  0  0
 17 13  2  0  0  0  0
 37 17  1  0  0  0  0
 18 16  2  0  0  0  0
 19 18  1  0  0  0  0
 20 19  1  0  0  0  0
 38 20  1  0  0  0  0
 39 20  1  0  0  0  0
 40 20  1  0  0  0  0
  9  8  1  0  0  0  0
 18 17  1  0  0  0  0
M  END
>  <FittedScore>
-32.02

$$$$
