A71EV2A-x4365b_lowest-energy
  FITTED

 42 44     0  0  0  0  0  0  0999 V2000
    7.2306   13.2553   22.7900 O    0  0  0  0  0  0  0  0  0  0  0  0
    7.9635   13.9257   23.5068 C    0  0  0  0  0  0  0  0  0  0  0  0
    8.7141   14.9678   22.9955 N    0  0  0  0  0  0  0  0  0  0  0  0
    9.4652   16.0043   23.7883 C    0  0  0  0  0  0  0  0  0  0  0  0
   10.9679   16.0857   23.4101 C    0  0  0  0  0  0  0  0  0  0  0  0
   11.1589   16.3659   21.8974 C    0  0  0  0  0  0  0  0  0  0  0  0
    8.8195   15.2800   21.5324 C    0  0  0  0  0  0  0  0  0  0  0  0
   10.2956   15.4006   21.0278 C    0  0  0  0  0  0  0  0  0  0  0  0
   10.3343   15.8172   19.5578 C    0  0  0  0  0  0  0  0  0  0  0  0
    9.9050   16.8811   19.1476 O    0  0  0  0  0  0  0  0  0  0  0  0
   10.7270   14.8666   18.6901 N    0  0  0  0  0  0  0  0  0  0  0  0
    8.0635   13.6080   25.0141 C    0  0  0  0  0  0  0  0  0  0  0  0
    7.4398   12.2785   25.4466 C    0  0  0  0  0  0  0  0  0  0  0  0
    7.9295   11.0585   24.9401 C    0  0  0  0  0  0  0  0  0  0  0  0
    8.9899   11.0307   24.0365 O    0  0  0  0  0  0  0  0  0  0  0  0
    9.7230    9.8097   23.7871 C    0  0  0  0  0  0  0  0  0  0  0  0
    8.7377    8.6356   23.6679 C    0  0  0  0  0  0  0  0  0  0  0  0
    7.8011    8.6588   24.7874 O    0  0  0  0  0  0  0  0  0  0  0  0
    7.3237    9.8459   25.3145 C    0  0  0  0  0  0  0  0  0  0  0  0
    6.2632    9.8319   26.2300 C    0  0  0  0  0  0  0  0  0  0  0  0
    5.7902   11.0389   26.7599 C    0  0  0  0  0  0  0  0  0  0  0  0
    6.3684   12.2554   26.3632 C    0  0  0  0  0  0  0  0  0  0  0  0
    8.9974   16.9798   23.6164 H    0  0  0  0  0  0  0  0  0  0  0  0
    9.4048   15.8719   24.8656 H    0  0  0  0  0  0  0  0  0  0  0  0
   11.4487   16.8768   23.9921 H    0  0  0  0  0  0  0  0  0  0  0  0
   11.4643   15.1476   23.6772 H    0  0  0  0  0  0  0  0  0  0  0  0
   10.9087   17.4117   21.6885 H    0  0  0  0  0  0  0  0  0  0  0  0
   12.2162   16.2403   21.6423 H    0  0  0  0  0  0  0  0  0  0  0  0
    8.2782   16.2099   21.3406 H    0  0  0  0  0  0  0  0  0  0  0  0
    8.3176   14.5366   20.9063 H    0  0  0  0  0  0  0  0  0  0  0  0
   10.7428   14.4054   21.1412 H    0  0  0  0  0  0  0  0  0  0  0  0
   10.7011   15.0554   17.6945 H    0  0  0  0  0  0  0  0  0  0  0  0
   10.9218   13.9191   19.0139 H    0  0  0  0  0  0  0  0  0  0  0  0
    7.6145   14.4293   25.5826 H    0  0  0  0  0  0  0  0  0  0  0  0
    9.1177   13.5713   25.3113 H    0  0  0  0  0  0  0  0  0  0  0  0
   10.4158    9.6435   24.6168 H    0  0  0  0  0  0  0  0  0  0  0  0
   10.3065    9.9321   22.8727 H    0  0  0  0  0  0  0  0  0  0  0  0
    9.2583    7.6779   23.6528 H    0  0  0  0  0  0  0  0  0  0  0  0
    8.1711    8.7249   22.7376 H    0  0  0  0  0  0  0  0  0  0  0  0
    5.8054    8.8902   26.5279 H    0  0  0  0  0  0  0  0  0  0  0  0
    4.9698   11.0309   27.4745 H    0  0  0  0  0  0  0  0  0  0  0  0
    5.9789   13.1830   26.7770 H    0  0  0  0  0  0  0  0  0  0  0  0
  2  1  2  0  0  0  0
  3  2  1  0  0  0  0
  4  3  1  0  0  0  0
 23  4  1  0  0  0  0
 24  4  1  0  0  0  0
  5  4  1  0  0  0  0
 25  5  1  0  0  0  0
 26  5  1  0  0  0  0
  6  5  1  0  0  0  0
 27  6  1  0  0  0  0
 28  6  1  0  0  0  0
  7  3  1  0  0  0  0
 29  7  1  0  0  0  0
 30  7  1  0  0  0  0
  8  6  1  0  0  0  0
  9  8  1  0  0  0  0
 31  8  1  0  0  0  0
 10  9  2  0  0  0  0
 11  9  1  0  0  0  0
 32 11  1  0  0  0  0
 33 11  1  0  0  0  0
 12  2  1  0  0  0  0
 34 12  1  0  0  0  0
 35 12  1  0  0  0  0
 13 12  1  0  0  0  0
 22 13  1  0  0  0  0
 14 13  2  0  0  0  0
 15 14  1  0  0  0  0
 16 15  1  0  0  0  0
 36 16  1  0  0  0  0
 37 16  1  0  0  0  0
 17 16  1  0  0  0  0
 38 17  1  0  0  0  0
 39 17  1  0  0  0  0
 18 17  1  0  0  0  0
 19 14  1  0  0  0  0
 20 19  2  0  0  0  0
 40 20  1  0  0  0  0
 21 20  1  0  0  0  0
 41 21  1  0  0  0  0
 42 22  1  0  0  0  0
  8  7  1  0  0  0  0
 19 18  1  0  0  0  0
 22 21  2  0  0  0  0
M  END
>  <FittedScore>
-33.22

$$$$
