A71EV2A-x7093a_best-RMSD
  FITTED

 54 56     0  0  0  0  0  0  0999 V2000
    9.5850    8.4867   23.3440 C    0  0  0  0  0  0  0  0  0  0  0  0
    9.5662   10.2242   23.8747 S    0  0  0  0  0  0  0  0  0  0  0  0
    8.1951   10.4174   24.9971 C    0  0  0  0  0  0  0  0  0  0  0  0
    7.4844    9.3041   25.3188 N    0  0  0  0  0  0  0  0  0  0  0  0
    6.4032    9.4445   26.1232 C    0  0  0  0  0  0  0  0  0  0  0  0
    5.9516   10.6301   26.6037 N    0  0  0  0  0  0  0  0  0  0  0  0
    6.6327   11.7568   26.2823 C    0  0  0  0  0  0  0  0  0  0  0  0
    6.0428   12.9332   26.6855 N    0  0  0  0  0  0  0  0  0  0  0  0
    6.3597   13.6577   27.9210 C    0  0  0  0  0  0  0  0  0  0  0  0
    5.6377   15.0106   27.7499 C    0  0  0  0  0  0  0  0  0  0  0  0
    4.4763   14.7061   26.7843 C    0  0  0  0  0  0  0  0  0  0  0  0
    3.7973   16.1390   25.8689 S    0  0  0  0  0  0  0  0  0  0  0  0
    2.4295   15.3278   24.9586 C    0  0  0  0  0  0  0  0  0  0  0  0
    5.0364   13.6063   25.8718 C    0  0  0  0  0  0  0  0  0  0  0  0
    7.8208   11.6927   25.5051 C    0  0  0  0  0  0  0  0  0  0  0  0
    8.6002   12.9605   25.1316 C    0  0  0  0  0  0  0  0  0  0  0  0
    8.2043   13.5504   23.7753 C    0  0  0  0  0  0  0  0  0  0  0  0
    7.3554   12.9944   23.0931 O    0  0  0  0  0  0  0  0  0  0  0  0
    8.9167   14.6320   23.3084 N    0  0  0  0  0  0  0  0  0  0  0  0
    9.9603   15.4151   24.0548 C    0  0  0  0  0  0  0  0  0  0  0  0
   11.3709   15.2753   23.4241 C    0  0  0  0  0  0  0  0  0  0  0  0
   11.3599   15.7101   21.9402 C    0  0  0  0  0  0  0  0  0  0  0  0
   10.2131   14.9873   21.1711 C    0  0  0  0  0  0  0  0  0  0  0  0
   10.1494   15.5030   19.7489 C    0  0  0  0  0  0  0  0  0  0  0  0
   10.6987   14.6965   18.8246 N    0  0  0  0  0  0  0  0  0  0  0  0
    9.5805   16.5317   19.4417 O    0  0  0  0  0  0  0  0  0  0  0  0
    8.8324   15.0991   21.8956 C    0  0  0  0  0  0  0  0  0  0  0  0
   10.4204    8.3193   22.6599 H    0  0  0  0  0  0  0  0  0  0  0  0
    8.6555    8.2402   22.8235 H    0  0  0  0  0  0  0  0  0  0  0  0
    9.7051    7.8334   24.2094 H    0  0  0  0  0  0  0  0  0  0  0  0
    5.8491    8.5485   26.3916 H    0  0  0  0  0  0  0  0  0  0  0  0
    7.4317   13.8065   28.0662 H    0  0  0  0  0  0  0  0  0  0  0  0
    5.9747   13.1299   28.7977 H    0  0  0  0  0  0  0  0  0  0  0  0
    6.3179   15.7500   27.3148 H    0  0  0  0  0  0  0  0  0  0  0  0
    5.2771   15.4011   28.7050 H    0  0  0  0  0  0  0  0  0  0  0  0
    3.6499   14.2940   27.3728 H    0  0  0  0  0  0  0  0  0  0  0  0
    1.8684   16.0794   24.4011 H    0  0  0  0  0  0  0  0  0  0  0  0
    1.7558   14.8195   25.6534 H    0  0  0  0  0  0  0  0  0  0  0  0
    2.8286   14.6003   24.2489 H    0  0  0  0  0  0  0  0  0  0  0  0
    5.4849   14.0418   24.9753 H    0  0  0  0  0  0  0  0  0  0  0  0
    4.2456   12.9228   25.5503 H    0  0  0  0  0  0  0  0  0  0  0  0
    9.6714   12.7483   25.1465 H    0  0  0  0  0  0  0  0  0  0  0  0
    8.4660   13.7190   25.9012 H    0  0  0  0  0  0  0  0  0  0  0  0
   10.0394   15.1621   25.1103 H    0  0  0  0  0  0  0  0  0  0  0  0
    9.6691   16.4705   24.0580 H    0  0  0  0  0  0  0  0  0  0  0  0
   11.7146   14.2381   23.5030 H    0  0  0  0  0  0  0  0  0  0  0  0
   12.0857   15.8911   23.9746 H    0  0  0  0  0  0  0  0  0  0  0  0
   12.3216   15.4614   21.4831 H    0  0  0  0  0  0  0  0  0  0  0  0
   11.2458   16.7980   21.8728 H    0  0  0  0  0  0  0  0  0  0  0  0
   10.4620   13.9179   21.1505 H    0  0  0  0  0  0  0  0  0  0  0  0
   10.7247   14.9934   17.8600 H    0  0  0  0  0  0  0  0  0  0  0  0
   10.9727   13.7511   19.0851 H    0  0  0  0  0  0  0  0  0  0  0  0
    8.0959   14.5455   21.3074 H    0  0  0  0  0  0  0  0  0  0  0  0
    8.4706   16.1322   21.8948 H    0  0  0  0  0  0  0  0  0  0  0  0
 16 17  1  0  0  0  0
 15 16  1  0  0  0  0
  7 15  2  0  0  0  0
  6  7  1  0  0  0  0
  5  6  2  0  0  0  0
  4  5  1  0  0  0  0
  3  4  2  0  0  0  0
  2  3  1  0  0  0  0
  1  2  1  0  0  0  0
 28  1  1  0  0  0  0
 29  1  1  0  0  0  0
 30  1  1  0  0  0  0
 31  5  1  0  0  0  0
  8  7  1  0  0  0  0
  9  8  1  0  0  0  0
 10  9  1  0  0  0  0
 32  9  1  0  0  0  0
 33  9  1  0  0  0  0
 11 10  1  0  0  0  0
 34 10  1  0  0  0  0
 35 10  1  0  0  0  0
 12 11  1  0  0  0  0
 14 11  1  0  0  0  0
 36 11  1  0  0  0  0
 13 12  1  0  0  0  0
 37 13  1  0  0  0  0
 38 13  1  0  0  0  0
 39 13  1  0  0  0  0
 40 14  1  0  0  0  0
 41 14  1  0  0  0  0
 42 16  1  0  0  0  0
 43 16  1  0  0  0  0
 18 17  2  0  0  0  0
 19 17  1  0  0  0  0
 20 19  1  0  0  0  0
 21 20  1  0  0  0  0
 44 20  1  0  0  0  0
 45 20  1  0  0  0  0
 22 21  1  0  0  0  0
 46 21  1  0  0  0  0
 47 21  1  0  0  0  0
 23 22  1  0  0  0  0
 48 22  1  0  0  0  0
 49 22  1  0  0  0  0
 24 23  1  0  0  0  0
 27 23  1  0  0  0  0
 50 23  1  0  0  0  0
 25 24  1  0  0  0  0
 26 24  2  0  0  0  0
 51 25  1  0  0  0  0
 52 25  1  0  0  0  0
 53 27  1  0  0  0  0
 54 27  1  0  0  0  0
 14  8  1  0  0  0  0
 15  3  1  0  0  0  0
 27 19  1  0  0  0  0
M  END
>  <FittedScore>
-32.73

$$$$
