A71EV2A-x7093a_lowest-energy
  FITTED

 54 56     0  0  0  0  0  0  0999 V2000
    9.6681    8.5527   23.4242 C    0  0  0  0  0  0  0  0  0  0  0  0
    9.5578   10.3110   23.8765 S    0  0  0  0  0  0  0  0  0  0  0  0
    8.1668   10.4629   24.9838 C    0  0  0  0  0  0  0  0  0  0  0  0
    7.4794    9.3291   25.2873 N    0  0  0  0  0  0  0  0  0  0  0  0
    6.3679    9.4387   26.0570 C    0  0  0  0  0  0  0  0  0  0  0  0
    5.8784   10.6119   26.5247 N    0  0  0  0  0  0  0  0  0  0  0  0
    6.5502   11.7565   26.2462 C    0  0  0  0  0  0  0  0  0  0  0  0
    5.9735   12.9368   26.6836 N    0  0  0  0  0  0  0  0  0  0  0  0
    5.7378   13.2315   28.1057 C    0  0  0  0  0  0  0  0  0  0  0  0
    4.3651   13.9386   28.1500 C    0  0  0  0  0  0  0  0  0  0  0  0
    3.7853   13.8343   26.7257 C    0  0  0  0  0  0  0  0  0  0  0  0
    2.6806   15.2214   26.2635 S    0  0  0  0  0  0  0  0  0  0  0  0
    2.0779   14.7165   24.6125 C    0  0  0  0  0  0  0  0  0  0  0  0
    5.0237   13.6519   25.8281 C    0  0  0  0  0  0  0  0  0  0  0  0
    7.7561   11.7229   25.4954 C    0  0  0  0  0  0  0  0  0  0  0  0
    8.5320   13.0066   25.1664 C    0  0  0  0  0  0  0  0  0  0  0  0
    8.2172   13.5681   23.7741 C    0  0  0  0  0  0  0  0  0  0  0  0
    7.3705   13.0275   23.0811 O    0  0  0  0  0  0  0  0  0  0  0  0
    8.9877   14.6078   23.2951 N    0  0  0  0  0  0  0  0  0  0  0  0
   10.1157   15.3008   24.0160 C    0  0  0  0  0  0  0  0  0  0  0  0
   11.4918   15.0338   23.3451 C    0  0  0  0  0  0  0  0  0  0  0  0
   11.4741   15.4919   21.8650 C    0  0  0  0  0  0  0  0  0  0  0  0
   10.2554   14.8847   21.1103 C    0  0  0  0  0  0  0  0  0  0  0  0
   10.2026   15.4177   19.6936 C    0  0  0  0  0  0  0  0  0  0  0  0
   10.7667   14.6268   18.7608 N    0  0  0  0  0  0  0  0  0  0  0  0
    9.7032   16.4832   19.3992 O    0  0  0  0  0  0  0  0  0  0  0  0
    8.9162   15.0912   21.8784 C    0  0  0  0  0  0  0  0  0  0  0  0
    9.7926    7.9502   24.3286 H    0  0  0  0  0  0  0  0  0  0  0  0
   10.5297    8.3955   22.7762 H    0  0  0  0  0  0  0  0  0  0  0  0
    8.7604    8.2373   22.9014 H    0  0  0  0  0  0  0  0  0  0  0  0
    5.8263    8.5251   26.3016 H    0  0  0  0  0  0  0  0  0  0  0  0
    6.5229   13.8863   28.4948 H    0  0  0  0  0  0  0  0  0  0  0  0
    5.7198   12.3362   28.7358 H    0  0  0  0  0  0  0  0  0  0  0  0
    4.4984   14.9833   28.4436 H    0  0  0  0  0  0  0  0  0  0  0  0
    3.7016   13.4629   28.8755 H    0  0  0  0  0  0  0  0  0  0  0  0
    3.1770   12.9258   26.6667 H    0  0  0  0  0  0  0  0  0  0  0  0
    2.9095   14.6543   23.9077 H    0  0  0  0  0  0  0  0  0  0  0  0
    1.3679   15.4581   24.2407 H    0  0  0  0  0  0  0  0  0  0  0  0
    1.5801   13.7463   24.6679 H    0  0  0  0  0  0  0  0  0  0  0  0
    5.4368   14.6128   25.5053 H    0  0  0  0  0  0  0  0  0  0  0  0
    4.7640   13.0904   24.9225 H    0  0  0  0  0  0  0  0  0  0  0  0
    9.5977   12.7907   25.2622 H    0  0  0  0  0  0  0  0  0  0  0  0
    8.3410   13.7838   25.9114 H    0  0  0  0  0  0  0  0  0  0  0  0
   10.2041   15.0331   25.0678 H    0  0  0  0  0  0  0  0  0  0  0  0
    9.9257   16.3795   24.0325 H    0  0  0  0  0  0  0  0  0  0  0  0
   11.7372   13.9664   23.4036 H    0  0  0  0  0  0  0  0  0  0  0  0
   12.2772   15.5710   23.8830 H    0  0  0  0  0  0  0  0  0  0  0  0
   12.4064   15.1853   21.3778 H    0  0  0  0  0  0  0  0  0  0  0  0
   11.4319   16.5855   21.8227 H    0  0  0  0  0  0  0  0  0  0  0  0
   10.4155   13.8001   21.0625 H    0  0  0  0  0  0  0  0  0  0  0  0
   11.0392   13.6698   18.9928 H    0  0  0  0  0  0  0  0  0  0  0  0
   10.8077   14.9448   17.8042 H    0  0  0  0  0  0  0  0  0  0  0  0
    8.1219   14.6098   21.3042 H    0  0  0  0  0  0  0  0  0  0  0  0
    8.6569   16.1538   21.8897 H    0  0  0  0  0  0  0  0  0  0  0  0
 16 17  1  0  0  0  0
 15 16  1  0  0  0  0
  7 15  2  0  0  0  0
  6  7  1  0  0  0  0
  5  6  2  0  0  0  0
  4  5  1  0  0  0  0
  3  4  2  0  0  0  0
  2  3  1  0  0  0  0
  1  2  1  0  0  0  0
 28  1  1  0  0  0  0
 29  1  1  0  0  0  0
 30  1  1  0  0  0  0
 31  5  1  0  0  0  0
  8  7  1  0  0  0  0
  9  8  1  0  0  0  0
 10  9  1  0  0  0  0
 32  9  1  0  0  0  0
 33  9  1  0  0  0  0
 11 10  1  0  0  0  0
 34 10  1  0  0  0  0
 35 10  1  0  0  0  0
 12 11  1  0  0  0  0
 14 11  1  0  0  0  0
 36 11  1  0  0  0  0
 13 12  1  0  0  0  0
 37 13  1  0  0  0  0
 38 13  1  0  0  0  0
 39 13  1  0  0  0  0
 40 14  1  0  0  0  0
 41 14  1  0  0  0  0
 42 16  1  0  0  0  0
 43 16  1  0  0  0  0
 18 17  2  0  0  0  0
 19 17  1  0  0  0  0
 20 19  1  0  0  0  0
 21 20  1  0  0  0  0
 44 20  1  0  0  0  0
 45 20  1  0  0  0  0
 22 21  1  0  0  0  0
 46 21  1  0  0  0  0
 47 21  1  0  0  0  0
 23 22  1  0  0  0  0
 48 22  1  0  0  0  0
 49 22  1  0  0  0  0
 24 23  1  0  0  0  0
 27 23  1  0  0  0  0
 50 23  1  0  0  0  0
 25 24  1  0  0  0  0
 26 24  2  0  0  0  0
 51 25  1  0  0  0  0
 52 25  1  0  0  0  0
 53 27  1  0  0  0  0
 54 27  1  0  0  0  0
 14  8  1  0  0  0  0
 15  3  1  0  0  0  0
 27 19  1  0  0  0  0
M  END
>  <FittedScore>
-32.39

$$$$
