A71EV2A-x4694a_best-RMSD
  FITTED

 37 38     0  0  0  0  0  0  0999 V2000
   11.6617   14.5570   25.0749 O    0  0  0  0  0  0  0  0  0  0  0  0
   11.3450   14.8405   23.9324 C    0  0  0  0  0  0  0  0  0  0  0  0
   12.4341   15.3469   22.9803 C    0  0  0  0  0  0  0  0  0  0  0  0
   12.1296   15.1393   21.4784 C    0  0  0  0  0  0  0  0  0  0  0  0
   10.7139   15.6808   21.1529 C    0  0  0  0  0  0  0  0  0  0  0  0
   10.3563   15.6875   19.6593 C    0  0  0  0  0  0  0  0  0  0  0  0
    9.6593   16.5521   19.1741 O    0  0  0  0  0  0  0  0  0  0  0  0
   10.6939   14.6279   18.8983 N    0  0  0  0  0  0  0  0  0  0  0  0
    9.6480   14.9675   22.0350 C    0  0  0  0  0  0  0  0  0  0  0  0
   10.0664   14.7195   23.4539 N    0  0  0  0  0  0  0  0  0  0  0  0
    8.9563   14.1408   24.2829 C    0  0  0  0  0  0  0  0  0  0  0  0
    8.8161   12.5940   24.2623 C    0  0  0  0  0  0  0  0  0  0  0  0
    7.7463   11.9426   24.9446 C    0  0  0  0  0  0  0  0  0  0  0  0
    6.4733   12.8802   25.7962 S    0  0  0  0  0  0  0  0  0  0  0  0
    5.6898   11.7764   27.0228 C    0  0  0  0  0  0  0  0  0  0  0  0
    9.7568   11.7865   23.5752 C    0  0  0  0  0  0  0  0  0  0  0  0
    9.6397   10.3975   23.5434 C    0  0  0  0  0  0  0  0  0  0  0  0
    8.5960    9.7759   24.2195 C    0  0  0  0  0  0  0  0  0  0  0  0
    7.6640   10.5348   24.9252 C    0  0  0  0  0  0  0  0  0  0  0  0
   12.6047   16.4114   23.1721 H    0  0  0  0  0  0  0  0  0  0  0  0
   13.3789   14.8441   23.2081 H    0  0  0  0  0  0  0  0  0  0  0  0
   12.8816   15.6605   20.8795 H    0  0  0  0  0  0  0  0  0  0  0  0
   12.2063   14.0733   21.2425 H    0  0  0  0  0  0  0  0  0  0  0  0
   10.7178   16.7371   21.4525 H    0  0  0  0  0  0  0  0  0  0  0  0
   11.0618   13.7778   19.3137 H    0  0  0  0  0  0  0  0  0  0  0  0
   10.5857   14.6808   17.8908 H    0  0  0  0  0  0  0  0  0  0  0  0
    8.7394   15.5771   22.0132 H    0  0  0  0  0  0  0  0  0  0  0  0
    9.3816   14.0132   21.5716 H    0  0  0  0  0  0  0  0  0  0  0  0
    9.0759   14.4730   25.3168 H    0  0  0  0  0  0  0  0  0  0  0  0
    8.0026   14.5689   23.9593 H    0  0  0  0  0  0  0  0  0  0  0  0
    6.4440   11.3836   27.7088 H    0  0  0  0  0  0  0  0  0  0  0  0
    5.1805   10.9599   26.5051 H    0  0  0  0  0  0  0  0  0  0  0  0
    4.9455   12.3277   27.6006 H    0  0  0  0  0  0  0  0  0  0  0  0
   10.5989   12.2118   23.0415 H    0  0  0  0  0  0  0  0  0  0  0  0
   10.3651    9.8050   22.9896 H    0  0  0  0  0  0  0  0  0  0  0  0
    8.5129    8.6917   24.2018 H    0  0  0  0  0  0  0  0  0  0  0  0
    6.8697    9.9958   25.4270 H    0  0  0  0  0  0  0  0  0  0  0  0
  9 10  1  0  0  0  0
  5  9  1  0  0  0  0
  6  5  1  0  0  0  0
  4  5  1  0  0  0  0
  3  4  1  0  0  0  0
  2  3  1  0  0  0  0
  1  2  2  0  0  0  0
 20  3  1  0  0  0  0
 21  3  1  0  0  0  0
 22  4  1  0  0  0  0
 23  4  1  0  0  0  0
 24  5  1  0  0  0  0
  7  6  2  0  0  0  0
  8  6  1  0  0  0  0
 25  8  1  0  0  0  0
 26  8  1  0  0  0  0
 27  9  1  0  0  0  0
 28  9  1  0  0  0  0
 11 10  1  0  0  0  0
 29 11  1  0  0  0  0
 30 11  1  0  0  0  0
 12 11  1  0  0  0  0
 13 12  1  0  0  0  0
 19 13  2  0  0  0  0
 14 13  1  0  0  0  0
 15 14  1  0  0  0  0
 31 15  1  0  0  0  0
 32 15  1  0  0  0  0
 33 15  1  0  0  0  0
 16 12  2  0  0  0  0
 34 16  1  0  0  0  0
 17 16  1  0  0  0  0
 35 17  1  0  0  0  0
 18 17  2  0  0  0  0
 36 18  1  0  0  0  0
 37 19  1  0  0  0  0
 10  2  1  0  0  0  0
 19 18  1  0  0  0  0
M  END
>  <FittedScore>
-33.50

$$$$
