A71EV2A-x5171a_lowest-energy
  FITTED

 44 45     0  0  0  0  0  0  0999 V2000
    9.8787   16.7119   19.2382 O    0  0  0  0  0  0  0  0  0  0  0  0
   10.3997   15.6837   19.6331 C    0  0  0  0  0  0  0  0  0  0  0  0
   10.8431   14.7674   18.7514 N    0  0  0  0  0  0  0  0  0  0  0  0
   10.3721   15.2102   21.0889 C    0  0  0  0  0  0  0  0  0  0  0  0
   11.2620   16.0973   22.0074 C    0  0  0  0  0  0  0  0  0  0  0  0
   11.1771   15.5855   23.4805 C    0  0  0  0  0  0  0  0  0  0  0  0
   12.0025   16.4362   24.4518 C    0  0  0  0  0  0  0  0  0  0  0  0
   11.9118   17.6458   24.5369 O    0  0  0  0  0  0  0  0  0  0  0  0
   12.8117   15.7579   25.2909 N    0  0  0  0  0  0  0  0  0  0  0  0
    9.6872   15.4991   23.9409 C    0  0  0  0  0  0  0  0  0  0  0  0
    8.9115   15.0797   21.6307 C    0  0  0  0  0  0  0  0  0  0  0  0
    8.8282   14.6247   23.0608 N    0  0  0  0  0  0  0  0  0  0  0  0
    7.9529   13.6434   23.4889 C    0  0  0  0  0  0  0  0  0  0  0  0
    7.1419   13.1401   22.7247 O    0  0  0  0  0  0  0  0  0  0  0  0
    7.9663   13.2085   24.9667 C    0  0  0  0  0  0  0  0  0  0  0  0
    7.1795   11.9265   25.2920 C    0  0  0  0  0  0  0  0  0  0  0  0
    7.6206   10.6349   24.8929 C    0  0  0  0  0  0  0  0  0  0  0  0
    9.1287   10.4504   23.9311 S    0  0  0  0  0  0  0  0  0  0  0  0
    9.2348    8.7253   23.3580 C    0  0  0  0  0  0  0  0  0  0  0  0
    5.9912   12.0498   26.0419 C    0  0  0  0  0  0  0  0  0  0  0  0
    5.2580   10.9194   26.4194 C    0  0  0  0  0  0  0  0  0  0  0  0
    5.6982    9.6494   26.0427 C    0  0  0  0  0  0  0  0  0  0  0  0
    6.8595    9.5101   25.2756 C    0  0  0  0  0  0  0  0  0  0  0  0
   10.7820   14.9499   17.7553 H    0  0  0  0  0  0  0  0  0  0  0  0
   11.0470   13.8238   19.0739 H    0  0  0  0  0  0  0  0  0  0  0  0
   10.7961   14.1981   21.1461 H    0  0  0  0  0  0  0  0  0  0  0  0
   12.2998   16.0481   21.6652 H    0  0  0  0  0  0  0  0  0  0  0  0
   10.9538   17.1475   21.9398 H    0  0  0  0  0  0  0  0  0  0  0  0
   11.5771   14.5633   23.4836 H    0  0  0  0  0  0  0  0  0  0  0  0
   12.8747   14.7480   25.2170 H    0  0  0  0  0  0  0  0  0  0  0  0
   13.2016   16.2143   26.1157 H    0  0  0  0  0  0  0  0  0  0  0  0
    9.6891   15.1866   24.9834 H    0  0  0  0  0  0  0  0  0  0  0  0
    9.2517   16.5040   23.9545 H    0  0  0  0  0  0  0  0  0  0  0  0
    8.3954   14.3895   20.9586 H    0  0  0  0  0  0  0  0  0  0  0  0
    8.3817   16.0327   21.5369 H    0  0  0  0  0  0  0  0  0  0  0  0
    8.9886   13.0513   25.3223 H    0  0  0  0  0  0  0  0  0  0  0  0
    7.5821   14.0423   25.5622 H    0  0  0  0  0  0  0  0  0  0  0  0
   10.1183    8.6060   22.7298 H    0  0  0  0  0  0  0  0  0  0  0  0
    8.3487    8.4644   22.7739 H    0  0  0  0  0  0  0  0  0  0  0  0
    9.3290    8.0603   24.2168 H    0  0  0  0  0  0  0  0  0  0  0  0
    5.6252   13.0283   26.3422 H    0  0  0  0  0  0  0  0  0  0  0  0
    4.3457   11.0307   26.9974 H    0  0  0  0  0  0  0  0  0  0  0  0
    5.1364    8.7664   26.3393 H    0  0  0  0  0  0  0  0  0  0  0  0
    7.1474    8.5050   24.9948 H    0  0  0  0  0  0  0  0  0  0  0  0
 12 13  1  0  0  0  0
 10 12  1  0  0  0  0
  6 10  1  0  0  0  0
  7  6  1  0  0  0  0
  5  6  1  0  0  0  0
  4  5  1  0  0  0  0
  2  4  1  0  0  0  0
  1  2  2  0  0  0  0
  3  2  1  0  0  0  0
 24  3  1  0  0  0  0
 25  3  1  0  0  0  0
 26  4  1  0  0  0  0
 27  5  1  0  0  0  0
 28  5  1  0  0  0  0
 29  6  1  0  0  0  0
  8  7  2  0  0  0  0
  9  7  1  0  0  0  0
 30  9  1  0  0  0  0
 31  9  1  0  0  0  0
 32 10  1  0  0  0  0
 33 10  1  0  0  0  0
 11  4  1  0  0  0  0
 34 11  1  0  0  0  0
 35 11  1  0  0  0  0
 14 13  2  0  0  0  0
 15 13  1  0  0  0  0
 36 15  1  0  0  0  0
 37 15  1  0  0  0  0
 16 15  1  0  0  0  0
 17 16  1  0  0  0  0
 23 17  2  0  0  0  0
 18 17  1  0  0  0  0
 19 18  1  0  0  0  0
 38 19  1  0  0  0  0
 39 19  1  0  0  0  0
 40 19  1  0  0  0  0
 20 16  2  0  0  0  0
 41 20  1  0  0  0  0
 21 20  1  0  0  0  0
 42 21  1  0  0  0  0
 22 21  2  0  0  0  0
 43 22  1  0  0  0  0
 44 23  1  0  0  0  0
 12 11  1  0  0  0  0
 23 22  1  0  0  0  0
M  END
>  <FittedScore>
-37.57

$$$$
