A71EV2A-x4343b_best-RMSD
  FITTED

 36 37     0  0  0  0  0  0  0999 V2000
    6.4164   12.7128   26.6651 BR   0  0  0  0  0  0  0  0  0  0  0  0
    7.4892   11.3925   25.7484 C    0  0  0  0  0  0  0  0  0  0  0  0
    7.0991   10.0323   25.7710 C    0  0  0  0  0  0  0  0  0  0  0  0
    6.0447    9.6129   26.5261 O    0  0  0  0  0  0  0  0  0  0  0  0
    7.7308    9.0813   25.0365 N    0  0  0  0  0  0  0  0  0  0  0  0
    8.7946    9.4255   24.2689 C    0  0  0  0  0  0  0  0  0  0  0  0
    9.2734   10.7328   24.2177 C    0  0  0  0  0  0  0  0  0  0  0  0
    8.6242   11.7372   24.9646 C    0  0  0  0  0  0  0  0  0  0  0  0
    9.0857   13.1670   24.7161 C    0  0  0  0  0  0  0  0  0  0  0  0
    8.3821   13.7812   23.4972 C    0  0  0  0  0  0  0  0  0  0  0  0
    7.5477   13.1466   22.8635 O    0  0  0  0  0  0  0  0  0  0  0  0
    8.9113   14.9455   23.0042 N    0  0  0  0  0  0  0  0  0  0  0  0
    9.6727   15.9753   23.7890 C    0  0  0  0  0  0  0  0  0  0  0  0
   11.1484   16.1225   23.3303 C    0  0  0  0  0  0  0  0  0  0  0  0
   11.2455   16.4016   21.8072 C    0  0  0  0  0  0  0  0  0  0  0  0
    8.9156   15.2844   21.5482 C    0  0  0  0  0  0  0  0  0  0  0  0
   10.3743   15.3969   20.9904 C    0  0  0  0  0  0  0  0  0  0  0  0
   10.3724   15.7423   19.5045 C    0  0  0  0  0  0  0  0  0  0  0  0
    9.9497   16.7917   19.0548 O    0  0  0  0  0  0  0  0  0  0  0  0
   10.7217   14.7415   18.6808 N    0  0  0  0  0  0  0  0  0  0  0  0
    5.7540    8.7061   26.2885 H    0  0  0  0  0  0  0  0  0  0  0  0
    9.2810    8.6580   23.6736 H    0  0  0  0  0  0  0  0  0  0  0  0
   10.1183   10.9608   23.5713 H    0  0  0  0  0  0  0  0  0  0  0  0
    8.9538   13.7757   25.6144 H    0  0  0  0  0  0  0  0  0  0  0  0
   10.1673   13.1661   24.5350 H    0  0  0  0  0  0  0  0  0  0  0  0
    9.1618   16.9390   23.6827 H    0  0  0  0  0  0  0  0  0  0  0  0
    9.6604   15.7957   24.8639 H    0  0  0  0  0  0  0  0  0  0  0  0
   11.6233   16.9395   23.8798 H    0  0  0  0  0  0  0  0  0  0  0  0
   11.6999   15.2115   23.5808 H    0  0  0  0  0  0  0  0  0  0  0  0
   10.9266   17.4292   21.6105 H    0  0  0  0  0  0  0  0  0  0  0  0
   12.2903   16.3289   21.4955 H    0  0  0  0  0  0  0  0  0  0  0  0
    8.3752   16.2252   21.4019 H    0  0  0  0  0  0  0  0  0  0  0  0
    8.3743   14.5495   20.9409 H    0  0  0  0  0  0  0  0  0  0  0  0
   10.8407   14.4135   21.1305 H    0  0  0  0  0  0  0  0  0  0  0  0
   10.6879   14.8831   17.6799 H    0  0  0  0  0  0  0  0  0  0  0  0
   10.8968   13.8023   19.0395 H    0  0  0  0  0  0  0  0  0  0  0  0
  9 10  1  0  0  0  0
  8  9  1  0  0  0  0
  7  8  2  0  0  0  0
  6  7  1  0  0  0  0
  5  6  2  0  0  0  0
  3  5  1  0  0  0  0
  2  3  2  0  0  0  0
  1  2  1  0  0  0  0
  4  3  1  0  0  0  0
 21  4  1  0  0  0  0
 22  6  1  0  0  0  0
 23  7  1  0  0  0  0
 24  9  1  0  0  0  0
 25  9  1  0  0  0  0
 11 10  2  0  0  0  0
 12 10  1  0  0  0  0
 13 12  1  0  0  0  0
 26 13  1  0  0  0  0
 27 13  1  0  0  0  0
 14 13  1  0  0  0  0
 28 14  1  0  0  0  0
 29 14  1  0  0  0  0
 15 14  1  0  0  0  0
 30 15  1  0  0  0  0
 31 15  1  0  0  0  0
 16 12  1  0  0  0  0
 32 16  1  0  0  0  0
 33 16  1  0  0  0  0
 17 15  1  0  0  0  0
 18 17  1  0  0  0  0
 34 17  1  0  0  0  0
 19 18  2  0  0  0  0
 20 18  1  0  0  0  0
 35 20  1  0  0  0  0
 36 20  1  0  0  0  0
  8  2  1  0  0  0  0
 17 16  1  0  0  0  0
M  END
>  <FittedScore>
-34.87

$$$$
