A71EV2A-x7190a_lowest-energy
  FITTED

 70 73     0  0  0  0  0  0  0999 V2000
    9.8707   16.6158   19.4006 O    0  0  0  0  0  0  0  0  0  0  0  0
   10.3505   15.5546   19.7559 C    0  0  0  0  0  0  0  0  0  0  0  0
   10.8412   14.7078   18.8249 N    0  0  0  0  0  0  0  0  0  0  0  0
   10.3251   15.0658   21.2113 C    0  0  0  0  0  0  0  0  0  0  0  0
   11.3609   15.8493   22.0813 C    0  0  0  0  0  0  0  0  0  0  0  0
   11.2618   15.4555   23.5828 C    0  0  0  0  0  0  0  0  0  0  0  0
    9.8007   15.5489   24.0899 C    0  0  0  0  0  0  0  0  0  0  0  0
    8.8885   15.1637   21.8398 C    0  0  0  0  0  0  0  0  0  0  0  0
    8.8610   14.7078   23.2688 N    0  0  0  0  0  0  0  0  0  0  0  0
    8.1411   13.6154   23.7053 C    0  0  0  0  0  0  0  0  0  0  0  0
    7.3086   13.0736   22.9910 O    0  0  0  0  0  0  0  0  0  0  0  0
    8.5185   12.9879   25.0531 C    0  0  0  0  0  0  0  0  0  0  0  0
    7.7495   11.7036   25.4205 C    0  0  0  0  0  0  0  0  0  0  0  0
    8.1113   10.4501   24.8495 C    0  0  0  0  0  0  0  0  0  0  0  0
    9.4525   10.3203   23.6759 S    0  0  0  0  0  0  0  0  0  0  0  0
    9.7579    8.5443   23.4326 C    0  0  0  0  0  0  0  0  0  0  0  0
    6.6585   11.7110   26.3392 C    0  0  0  0  0  0  0  0  0  0  0  0
    6.0304   10.5500   26.6682 N    0  0  0  0  0  0  0  0  0  0  0  0
    6.4283    9.4010   26.0743 C    0  0  0  0  0  0  0  0  0  0  0  0
    7.4368    9.3088   25.1717 N    0  0  0  0  0  0  0  0  0  0  0  0
    6.1608   12.8669   26.9215 N    0  0  0  0  0  0  0  0  0  0  0  0
    5.3407   13.8013   26.1384 C    0  0  0  0  0  0  0  0  0  0  0  0
    4.2061   14.2257   27.1032 C    0  0  0  0  0  0  0  0  0  0  0  0
    4.8600   14.1325   28.5010 C    0  0  0  0  0  0  0  0  0  0  0  0
    5.9158   13.0135   28.3768 C    0  0  0  0  0  0  0  0  0  0  0  0
    2.9767   13.2899   27.0121 C    0  0  0  0  0  0  0  0  0  0  0  0
    3.1557   12.0853   26.9393 O    0  0  0  0  0  0  0  0  0  0  0  0
    1.7157   13.8167   26.8790 N    0  0  0  0  0  0  0  0  0  0  0  0
    1.2856   15.2037   27.2341 C    0  0  0  0  0  0  0  0  0  0  0  0
    1.0187   16.0739   25.9736 C    0  0  0  0  0  0  0  0  0  0  0  0
    0.0840   15.3773   24.9251 C    0  0  0  0  0  0  0  0  0  0  0  0
   -1.4168   15.6395   25.2273 C    0  0  0  0  0  0  0  0  0  0  0  0
    0.3862   13.8478   24.7591 C    0  0  0  0  0  0  0  0  0  0  0  0
    0.6317   13.1269   26.1183 C    0  0  0  0  0  0  0  0  0  0  0  0
   11.1149   13.7623   19.0842 H    0  0  0  0  0  0  0  0  0  0  0  0
   10.7448   14.9368   17.8390 H    0  0  0  0  0  0  0  0  0  0  0  0
   10.6144   14.0084   21.2344 H    0  0  0  0  0  0  0  0  0  0  0  0
   12.3751   15.6466   21.7223 H    0  0  0  0  0  0  0  0  0  0  0  0
   11.1921   16.9291   21.9783 H    0  0  0  0  0  0  0  0  0  0  0  0
   11.6319   14.4374   23.7285 H    0  0  0  0  0  0  0  0  0  0  0  0
   11.9038   16.1148   24.1702 H    0  0  0  0  0  0  0  0  0  0  0  0
    9.7925   15.3227   25.1540 H    0  0  0  0  0  0  0  0  0  0  0  0
    9.4741   16.5956   24.0536 H    0  0  0  0  0  0  0  0  0  0  0  0
    8.1954   14.6041   21.2080 H    0  0  0  0  0  0  0  0  0  0  0  0
    8.5321   16.1989   21.7941 H    0  0  0  0  0  0  0  0  0  0  0  0
    9.5928   12.7861   25.0691 H    0  0  0  0  0  0  0  0  0  0  0  0
    8.3865   13.7221   25.8475 H    0  0  0  0  0  0  0  0  0  0  0  0
    9.9471    8.0678   24.3939 H    0  0  0  0  0  0  0  0  0  0  0  0
   10.6289    8.4036   22.7895 H    0  0  0  0  0  0  0  0  0  0  0  0
    8.8914    8.0786   22.9542 H    0  0  0  0  0  0  0  0  0  0  0  0
    5.8984    8.4886   26.3393 H    0  0  0  0  0  0  0  0  0  0  0  0
    5.9224   14.6738   25.8265 H    0  0  0  0  0  0  0  0  0  0  0  0
    4.9264   13.3642   25.2223 H    0  0  0  0  0  0  0  0  0  0  0  0
    3.9644   15.2669   26.8676 H    0  0  0  0  0  0  0  0  0  0  0  0
    5.3447   15.0832   28.7495 H    0  0  0  0  0  0  0  0  0  0  0  0
    4.1309   13.9160   29.2927 H    0  0  0  0  0  0  0  0  0  0  0  0
    6.8366   13.2832   28.9007 H    0  0  0  0  0  0  0  0  0  0  0  0
    5.5299   12.1058   28.8446 H    0  0  0  0  0  0  0  0  0  0  0  0
    0.3701   15.1512   27.8343 H    0  0  0  0  0  0  0  0  0  0  0  0
    1.9986   15.7094   27.8901 H    0  0  0  0  0  0  0  0  0  0  0  0
    0.6036   17.0344   26.2918 H    0  0  0  0  0  0  0  0  0  0  0  0
    1.9751   16.3072   25.4996 H    0  0  0  0  0  0  0  0  0  0  0  0
    0.2891   15.8546   23.9629 H    0  0  0  0  0  0  0  0  0  0  0  0
   -2.0480   15.2191   24.4420 H    0  0  0  0  0  0  0  0  0  0  0  0
   -1.6254   16.7113   25.2716 H    0  0  0  0  0  0  0  0  0  0  0  0
   -1.7142   15.1918   26.1791 H    0  0  0  0  0  0  0  0  0  0  0  0
   -0.4265   13.3488   24.2190 H    0  0  0  0  0  0  0  0  0  0  0  0
    1.2794   13.7323   24.1390 H    0  0  0  0  0  0  0  0  0  0  0  0
   -0.2819   13.1035   26.7207 H    0  0  0  0  0  0  0  0  0  0  0  0
    0.8626   12.0763   25.9184 H    0  0  0  0  0  0  0  0  0  0  0  0
 21 25  1  0  0  0  0
 17 21  1  0  0  0  0
 13 17  2  0  0  0  0
 12 13  1  0  0  0  0
 10 12  1  0  0  0  0
  9 10  1  0  0  0  0
  7  9  1  0  0  0  0
  6  7  1  0  0  0  0
  5  6  1  0  0  0  0
  4  5  1  0  0  0  0
  2  4  1  0  0  0  0
  1  2  2  0  0  0  0
  3  2  1  0  0  0  0
 35  3  1  0  0  0  0
 36  3  1  0  0  0  0
 37  4  1  0  0  0  0
 38  5  1  0  0  0  0
 39  5  1  0  0  0  0
 40  6  1  0  0  0  0
 41  6  1  0  0  0  0
 42  7  1  0  0  0  0
 43  7  1  0  0  0  0
  8  4  1  0  0  0  0
 44  8  1  0  0  0  0
 45  8  1  0  0  0  0
 11 10  2  0  0  0  0
 46 12  1  0  0  0  0
 47 12  1  0  0  0  0
 14 13  1  0  0  0  0
 20 14  2  0  0  0  0
 15 14  1  0  0  0  0
 16 15  1  0  0  0  0
 48 16  1  0  0  0  0
 49 16  1  0  0  0  0
 50 16  1  0  0  0  0
 18 17  1  0  0  0  0
 19 18  2  0  0  0  0
 51 19  1  0  0  0  0
 22 21  1  0  0  0  0
 52 22  1  0  0  0  0
 53 22  1  0  0  0  0
 23 22  1  0  0  0  0
 26 23  1  0  0  0  0
 54 23  1  0  0  0  0
 24 23  1  0  0  0  0
 55 24  1  0  0  0  0
 56 24  1  0  0  0  0
 57 25  1  0  0  0  0
 58 25  1  0  0  0  0
 27 26  2  0  0  0  0
 28 26  1  0  0  0  0
 34 28  1  0  0  0  0
 29 28  1  0  0  0  0
 59 29  1  0  0  0  0
 60 29  1  0  0  0  0
 30 29  1  0  0  0  0
 61 30  1  0  0  0  0
 62 30  1  0  0  0  0
 31 30  1  0  0  0  0
 63 31  1  0  0  0  0
 32 31  1  0  0  0  0
 64 32  1  0  0  0  0
 65 32  1  0  0  0  0
 66 32  1  0  0  0  0
 33 31  1  0  0  0  0
 67 33  1  0  0  0  0
 68 33  1  0  0  0  0
 69 34  1  0  0  0  0
 70 34  1  0  0  0  0
  9  8  1  0  0  0  0
 20 19  1  0  0  0  0
 25 24  1  0  0  0  0
 34 33  1  0  0  0  0
M  END
>  <FittedScore>
-40.17

$$$$
