A71EV2A-x7190a_best-RMSD
  FITTED

 70 73     0  0  0  0  0  0  0999 V2000
    9.7180   16.5411   19.2412 O    0  0  0  0  0  0  0  0  0  0  0  0
   10.2824   15.5377   19.6342 C    0  0  0  0  0  0  0  0  0  0  0  0
   10.8500   14.6846   18.7605 N    0  0  0  0  0  0  0  0  0  0  0  0
   10.2878   15.0776   21.0906 C    0  0  0  0  0  0  0  0  0  0  0  0
   11.3571   15.8550   21.9150 C    0  0  0  0  0  0  0  0  0  0  0  0
   11.3035   15.4580   23.4158 C    0  0  0  0  0  0  0  0  0  0  0  0
    9.8546   15.5160   23.9725 C    0  0  0  0  0  0  0  0  0  0  0  0
    8.8721   15.1505   21.7458 C    0  0  0  0  0  0  0  0  0  0  0  0
    8.8926   14.6822   23.1700 N    0  0  0  0  0  0  0  0  0  0  0  0
    8.1637   13.6030   23.6255 C    0  0  0  0  0  0  0  0  0  0  0  0
    7.3332   13.0579   22.9167 O    0  0  0  0  0  0  0  0  0  0  0  0
    8.4749   13.0197   25.0144 C    0  0  0  0  0  0  0  0  0  0  0  0
    7.6914   11.7369   25.3613 C    0  0  0  0  0  0  0  0  0  0  0  0
    8.1426   10.4811   24.8584 C    0  0  0  0  0  0  0  0  0  0  0  0
    9.5373   10.3478   23.7520 S    0  0  0  0  0  0  0  0  0  0  0  0
    9.8267    8.5719   23.4809 C    0  0  0  0  0  0  0  0  0  0  0  0
    6.5111   11.7311   26.1729 C    0  0  0  0  0  0  0  0  0  0  0  0
    5.9236   10.5377   26.4849 N    0  0  0  0  0  0  0  0  0  0  0  0
    6.4321    9.3876   25.9906 C    0  0  0  0  0  0  0  0  0  0  0  0
    7.5066    9.3223   25.1760 N    0  0  0  0  0  0  0  0  0  0  0  0
    5.8713   12.8673   26.6766 N    0  0  0  0  0  0  0  0  0  0  0  0
    5.1141   12.8672   27.9509 C    0  0  0  0  0  0  0  0  0  0  0  0
    4.3551   14.2185   28.0207 C    0  0  0  0  0  0  0  0  0  0  0  0
    4.2496   14.6439   26.5377 C    0  0  0  0  0  0  0  0  0  0  0  0
    5.4394   13.9889   25.8199 C    0  0  0  0  0  0  0  0  0  0  0  0
    5.0426   15.3038   28.8809 C    0  0  0  0  0  0  0  0  0  0  0  0
    6.2316   15.1884   29.1221 O    0  0  0  0  0  0  0  0  0  0  0  0
    4.3381   16.4148   29.3191 N    0  0  0  0  0  0  0  0  0  0  0  0
    4.9743   17.5437   30.0863 C    0  0  0  0  0  0  0  0  0  0  0  0
    4.8222   18.9256   29.3886 C    0  0  0  0  0  0  0  0  0  0  0  0
    3.3419   19.2696   29.0244 C    0  0  0  0  0  0  0  0  0  0  0  0
    2.5500   19.8328   30.2400 C    0  0  0  0  0  0  0  0  0  0  0  0
    2.6258   18.0502   28.3567 C    0  0  0  0  0  0  0  0  0  0  0  0
    2.8784   16.7082   29.1025 C    0  0  0  0  0  0  0  0  0  0  0  0
   11.1394   13.7569   19.0734 H    0  0  0  0  0  0  0  0  0  0  0  0
   10.8375   14.8978   17.7696 H    0  0  0  0  0  0  0  0  0  0  0  0
   10.5781   14.0210   21.1199 H    0  0  0  0  0  0  0  0  0  0  0  0
   12.3533   15.6308   21.5221 H    0  0  0  0  0  0  0  0  0  0  0  0
   11.2080   16.9367   21.8144 H    0  0  0  0  0  0  0  0  0  0  0  0
   11.7034   14.4469   23.5441 H    0  0  0  0  0  0  0  0  0  0  0  0
   11.9453   16.1288   23.9922 H    0  0  0  0  0  0  0  0  0  0  0  0
    9.8911   15.2508   25.0279 H    0  0  0  0  0  0  0  0  0  0  0  0
    9.5114   16.5563   23.9693 H    0  0  0  0  0  0  0  0  0  0  0  0
    8.1885   14.5744   21.1171 H    0  0  0  0  0  0  0  0  0  0  0  0
    8.4906   16.1760   21.7152 H    0  0  0  0  0  0  0  0  0  0  0  0
    9.5458   12.8248   25.0953 H    0  0  0  0  0  0  0  0  0  0  0  0
    8.3053   13.7668   25.7894 H    0  0  0  0  0  0  0  0  0  0  0  0
   10.0235    8.0796   24.4373 H    0  0  0  0  0  0  0  0  0  0  0  0
   10.6946    8.4355   22.8344 H    0  0  0  0  0  0  0  0  0  0  0  0
    8.9555    8.1158   23.0046 H    0  0  0  0  0  0  0  0  0  0  0  0
    5.9358    8.4558   26.2503 H    0  0  0  0  0  0  0  0  0  0  0  0
    4.3646   12.0692   27.9878 H    0  0  0  0  0  0  0  0  0  0  0  0
    5.7685   12.6921   28.8100 H    0  0  0  0  0  0  0  0  0  0  0  0
    3.3667   13.9893   28.4267 H    0  0  0  0  0  0  0  0  0  0  0  0
    3.3128   14.2787   26.1088 H    0  0  0  0  0  0  0  0  0  0  0  0
    4.2648   15.7301   26.4033 H    0  0  0  0  0  0  0  0  0  0  0  0
    5.1380   13.6523   24.8245 H    0  0  0  0  0  0  0  0  0  0  0  0
    6.2205   14.7410   25.6936 H    0  0  0  0  0  0  0  0  0  0  0  0
    4.5385   17.5823   31.0884 H    0  0  0  0  0  0  0  0  0  0  0  0
    6.0418   17.3906   30.2594 H    0  0  0  0  0  0  0  0  0  0  0  0
    5.2553   19.7043   30.0234 H    0  0  0  0  0  0  0  0  0  0  0  0
    5.4202   18.9188   28.4722 H    0  0  0  0  0  0  0  0  0  0  0  0
    3.3739   20.0680   28.2775 H    0  0  0  0  0  0  0  0  0  0  0  0
    2.4781   19.1052   31.0521 H    0  0  0  0  0  0  0  0  0  0  0  0
    1.5344   20.1110   29.9477 H    0  0  0  0  0  0  0  0  0  0  0  0
    3.0320   20.7307   30.6349 H    0  0  0  0  0  0  0  0  0  0  0  0
    1.5487   18.2316   28.2836 H    0  0  0  0  0  0  0  0  0  0  0  0
    2.9837   17.9482   27.3276 H    0  0  0  0  0  0  0  0  0  0  0  0
    2.3756   16.7278   30.0739 H    0  0  0  0  0  0  0  0  0  0  0  0
    2.3524   15.9391   28.5416 H    0  0  0  0  0  0  0  0  0  0  0  0
 21 25  1  0  0  0  0
 17 21  1  0  0  0  0
 13 17  2  0  0  0  0
 12 13  1  0  0  0  0
 10 12  1  0  0  0  0
  9 10  1  0  0  0  0
  7  9  1  0  0  0  0
  6  7  1  0  0  0  0
  5  6  1  0  0  0  0
  4  5  1  0  0  0  0
  2  4  1  0  0  0  0
  1  2  2  0  0  0  0
  3  2  1  0  0  0  0
 35  3  1  0  0  0  0
 36  3  1  0  0  0  0
 37  4  1  0  0  0  0
 38  5  1  0  0  0  0
 39  5  1  0  0  0  0
 40  6  1  0  0  0  0
 41  6  1  0  0  0  0
 42  7  1  0  0  0  0
 43  7  1  0  0  0  0
  8  4  1  0  0  0  0
 44  8  1  0  0  0  0
 45  8  1  0  0  0  0
 11 10  2  0  0  0  0
 46 12  1  0  0  0  0
 47 12  1  0  0  0  0
 14 13  1  0  0  0  0
 20 14  2  0  0  0  0
 15 14  1  0  0  0  0
 16 15  1  0  0  0  0
 48 16  1  0  0  0  0
 49 16  1  0  0  0  0
 50 16  1  0  0  0  0
 18 17  1  0  0  0  0
 19 18  2  0  0  0  0
 51 19  1  0  0  0  0
 22 21  1  0  0  0  0
 52 22  1  0  0  0  0
 53 22  1  0  0  0  0
 23 22  1  0  0  0  0
 26 23  1  0  0  0  0
 54 23  1  0  0  0  0
 24 23  1  0  0  0  0
 55 24  1  0  0  0  0
 56 24  1  0  0  0  0
 57 25  1  0  0  0  0
 58 25  1  0  0  0  0
 27 26  2  0  0  0  0
 28 26  1  0  0  0  0
 34 28  1  0  0  0  0
 29 28  1  0  0  0  0
 59 29  1  0  0  0  0
 60 29  1  0  0  0  0
 30 29  1  0  0  0  0
 61 30  1  0  0  0  0
 62 30  1  0  0  0  0
 31 30  1  0  0  0  0
 63 31  1  0  0  0  0
 32 31  1  0  0  0  0
 64 32  1  0  0  0  0
 65 32  1  0  0  0  0
 66 32  1  0  0  0  0
 33 31  1  0  0  0  0
 67 33  1  0  0  0  0
 68 33  1  0  0  0  0
 69 34  1  0  0  0  0
 70 34  1  0  0  0  0
  9  8  1  0  0  0  0
 20 19  1  0  0  0  0
 25 24  1  0  0  0  0
 34 33  1  0  0  0  0
M  END
>  <FittedScore>
-39.72

$$$$
