A71EV2A-x5705b_lowest-energy
  FITTED

 41 43     0  0  0  0  0  0  0999 V2000
   11.2985   15.3883   18.5657 N    0  0  0  0  0  0  0  0  0  0  0  0
   10.5776   15.9390   19.5579 C    0  0  0  0  0  0  0  0  0  0  0  0
    9.8315   16.8763   19.3320 O    0  0  0  0  0  0  0  0  0  0  0  0
   10.8310   15.3854   20.9542 C    0  0  0  0  0  0  0  0  0  0  0  0
   11.6542   16.3192   21.8536 C    0  0  0  0  0  0  0  0  0  0  0  0
   11.2057   15.9314   23.2645 C    0  0  0  0  0  0  0  0  0  0  0  0
    9.8044   15.4765   23.1668 N    0  0  0  0  0  0  0  0  0  0  0  0
    8.9296   15.4118   24.2188 C    0  0  0  0  0  0  0  0  0  0  0  0
    9.2930   15.7489   25.3343 O    0  0  0  0  0  0  0  0  0  0  0  0
    7.4676   14.9931   23.9501 C    0  0  0  0  0  0  0  0  0  0  0  0
    6.6332   16.2412   23.5817 C    0  0  0  0  0  0  0  0  0  0  0  0
    5.9800   16.6742   24.8922 C    0  0  0  0  0  0  0  0  0  0  0  0
    5.9861   15.4126   25.7640 C    0  0  0  0  0  0  0  0  0  0  0  0
    6.8201   14.3611   25.1273 N    0  0  0  0  0  0  0  0  0  0  0  0
    6.7667   13.0331   25.5038 C    0  0  0  0  0  0  0  0  0  0  0  0
    5.9360   12.6885   26.3299 O    0  0  0  0  0  0  0  0  0  0  0  0
    7.6636   11.9632   24.8905 C    0  0  0  0  0  0  0  0  0  0  0  0
    7.4158   10.6069   25.1030 C    0  0  0  0  0  0  0  0  0  0  0  0
    8.2813    9.7421   24.4560 C    0  0  0  0  0  0  0  0  0  0  0  0
    9.2782   10.3851   23.7541 C    0  0  0  0  0  0  0  0  0  0  0  0
    9.1181   12.1258   23.8723 S    0  0  0  0  0  0  0  0  0  0  0  0
    9.5367   15.1333   21.7543 C    0  0  0  0  0  0  0  0  0  0  0  0
   11.0788   15.6094   17.5991 H    0  0  0  0  0  0  0  0  0  0  0  0
   12.0138   14.6910   18.7436 H    0  0  0  0  0  0  0  0  0  0  0  0
   11.3665   14.4269   20.8845 H    0  0  0  0  0  0  0  0  0  0  0  0
   11.4101   17.3696   21.6727 H    0  0  0  0  0  0  0  0  0  0  0  0
   12.7303   16.1775   21.7160 H    0  0  0  0  0  0  0  0  0  0  0  0
   11.3049   16.7994   23.9239 H    0  0  0  0  0  0  0  0  0  0  0  0
   11.8208   15.1230   23.6745 H    0  0  0  0  0  0  0  0  0  0  0  0
    7.3749   14.2921   23.1180 H    0  0  0  0  0  0  0  0  0  0  0  0
    5.8714   15.9820   22.8402 H    0  0  0  0  0  0  0  0  0  0  0  0
    7.2384   17.0503   23.1588 H    0  0  0  0  0  0  0  0  0  0  0  0
    4.9623   17.0412   24.7340 H    0  0  0  0  0  0  0  0  0  0  0  0
    6.5708   17.4672   25.3597 H    0  0  0  0  0  0  0  0  0  0  0  0
    4.9587   15.0655   25.8982 H    0  0  0  0  0  0  0  0  0  0  0  0
    6.3944   15.6359   26.7546 H    0  0  0  0  0  0  0  0  0  0  0  0
    6.5940   10.2389   25.7071 H    0  0  0  0  0  0  0  0  0  0  0  0
    8.1851    8.6577   24.4996 H    0  0  0  0  0  0  0  0  0  0  0  0
   10.0639    9.8886   23.1917 H    0  0  0  0  0  0  0  0  0  0  0  0
    8.7007   15.7360   21.3953 H    0  0  0  0  0  0  0  0  0  0  0  0
    9.2519   14.0859   21.6484 H    0  0  0  0  0  0  0  0  0  0  0  0
  7  8  1  0  0  0  0
  6  7  1  0  0  0  0
  5  6  1  0  0  0  0
  4  5  1  0  0  0  0
  2  4  1  0  0  0  0
  1  2  1  0  0  0  0
 23  1  1  0  0  0  0
 24  1  1  0  0  0  0
  3  2  2  0  0  0  0
 25  4  1  0  0  0  0
 26  5  1  0  0  0  0
 27  5  1  0  0  0  0
 28  6  1  0  0  0  0
 29  6  1  0  0  0  0
 22  7  1  0  0  0  0
  9  8  2  0  0  0  0
 10  8  1  0  0  0  0
 11 10  1  0  0  0  0
 30 10  1  0  0  0  0
 12 11  1  0  0  0  0
 31 11  1  0  0  0  0
 32 11  1  0  0  0  0
 13 12  1  0  0  0  0
 33 12  1  0  0  0  0
 34 12  1  0  0  0  0
 14 13  1  0  0  0  0
 35 13  1  0  0  0  0
 36 13  1  0  0  0  0
 15 14  1  0  0  0  0
 16 15  2  0  0  0  0
 17 15  1  0  0  0  0
 18 17  2  0  0  0  0
 19 18  1  0  0  0  0
 37 18  1  0  0  0  0
 20 19  2  0  0  0  0
 38 19  1  0  0  0  0
 21 20  1  0  0  0  0
 39 20  1  0  0  0  0
 40 22  1  0  0  0  0
 41 22  1  0  0  0  0
 14 10  1  0  0  0  0
 21 17  1  0  0  0  0
 22  4  1  0  0  0  0
M  END
>  <FittedScore>
-32.62

$$$$
