A71EV2A-x4526a_lowest-energy
  FITTED

 36 37     0  0  0  0  0  0  0999 V2000
    9.9340   16.7831   18.8582 O    0  0  0  0  0  0  0  0  0  0  0  0
   10.3539   15.7389   19.3140 C    0  0  0  0  0  0  0  0  0  0  0  0
   10.7571   14.7731   18.4740 N    0  0  0  0  0  0  0  0  0  0  0  0
   10.3401   15.3710   20.7993 C    0  0  0  0  0  0  0  0  0  0  0  0
   11.2124   16.3580   21.6314 C    0  0  0  0  0  0  0  0  0  0  0  0
   11.1016   16.0616   23.1495 C    0  0  0  0  0  0  0  0  0  0  0  0
    9.6206   15.9841   23.5925 C    0  0  0  0  0  0  0  0  0  0  0  0
    8.8873   15.2454   21.3650 C    0  0  0  0  0  0  0  0  0  0  0  0
    8.8544   14.9391   22.8370 N    0  0  0  0  0  0  0  0  0  0  0  0
    8.1707   13.8670   23.3762 C    0  0  0  0  0  0  0  0  0  0  0  0
    7.3768   13.2256   22.7017 O    0  0  0  0  0  0  0  0  0  0  0  0
    8.4456   13.4152   24.8277 C    0  0  0  0  0  0  0  0  0  0  0  0
    7.4507   14.0942   25.8073 C    0  0  0  0  0  0  0  0  0  0  0  0
    8.4964   11.8890   24.8896 C    0  0  0  0  0  0  0  0  0  0  0  0
    7.1523   10.8630   25.4196 S    0  0  0  0  0  0  0  0  0  0  0  0
    8.0873    9.4654   24.9119 C    0  0  0  0  0  0  0  0  0  0  0  0
    9.3448    9.7840   24.4312 C    0  0  0  0  0  0  0  0  0  0  0  0
    9.5743   11.1472   24.4186 C    0  0  0  0  0  0  0  0  0  0  0  0
   10.6895   14.9219   17.4778 H    0  0  0  0  0  0  0  0  0  0  0  0
   10.9627   13.8390   18.8144 H    0  0  0  0  0  0  0  0  0  0  0  0
   10.7933   14.3805   20.9277 H    0  0  0  0  0  0  0  0  0  0  0  0
   12.2575   16.2693   21.3237 H    0  0  0  0  0  0  0  0  0  0  0  0
   10.9124   17.3934   21.4393 H    0  0  0  0  0  0  0  0  0  0  0  0
   11.6075   15.1193   23.3873 H    0  0  0  0  0  0  0  0  0  0  0  0
   11.6128   16.8491   23.7102 H    0  0  0  0  0  0  0  0  0  0  0  0
    9.5957   15.8643   24.6723 H    0  0  0  0  0  0  0  0  0  0  0  0
    9.1431   16.9554   23.4285 H    0  0  0  0  0  0  0  0  0  0  0  0
    8.3691   14.4816   20.7781 H    0  0  0  0  0  0  0  0  0  0  0  0
    8.3321   16.1715   21.1826 H    0  0  0  0  0  0  0  0  0  0  0  0
    9.4462   13.7123   25.1487 H    0  0  0  0  0  0  0  0  0  0  0  0
    7.5496   15.1804   25.7851 H    0  0  0  0  0  0  0  0  0  0  0  0
    7.6376   13.7677   26.8332 H    0  0  0  0  0  0  0  0  0  0  0  0
    6.4169   13.8522   25.5511 H    0  0  0  0  0  0  0  0  0  0  0  0
    7.7091    8.4501   24.9776 H    0  0  0  0  0  0  0  0  0  0  0  0
   10.0643    9.0457   24.0839 H    0  0  0  0  0  0  0  0  0  0  0  0
   10.4949   11.5904   24.0470 H    0  0  0  0  0  0  0  0  0  0  0  0
  7  9  1  0  0  0  0
  6  7  1  0  0  0  0
  5  6  1  0  0  0  0
  4  5  1  0  0  0  0
  2  4  1  0  0  0  0
  1  2  2  0  0  0  0
  3  2  1  0  0  0  0
 19  3  1  0  0  0  0
 20  3  1  0  0  0  0
 21  4  1  0  0  0  0
 22  5  1  0  0  0  0
 23  5  1  0  0  0  0
 24  6  1  0  0  0  0
 25  6  1  0  0  0  0
 26  7  1  0  0  0  0
 27  7  1  0  0  0  0
  8  4  1  0  0  0  0
 28  8  1  0  0  0  0
 29  8  1  0  0  0  0
 10  9  1  0  0  0  0
 11 10  2  0  0  0  0
 12 10  1  0  0  0  0
 13 12  1  0  0  0  0
 30 12  1  0  0  0  0
 31 13  1  0  0  0  0
 32 13  1  0  0  0  0
 33 13  1  0  0  0  0
 14 12  1  0  0  0  0
 18 14  2  0  0  0  0
 15 14  1  0  0  0  0
 16 15  1  0  0  0  0
 34 16  1  0  0  0  0
 17 16  2  0  0  0  0
 35 17  1  0  0  0  0
 36 18  1  0  0  0  0
  9  8  1  0  0  0  0
 18 17  1  0  0  0  0
M  END
>  <FittedScore>
-30.28

$$$$
