A71EV2A-x4526a_best-RMSD
  FITTED

 36 37     0  0  0  0  0  0  0999 V2000
    9.5632   16.5952   18.8714 O    0  0  0  0  0  0  0  0  0  0  0  0
   10.1365   15.6335   19.3370 C    0  0  0  0  0  0  0  0  0  0  0  0
   10.7541   14.7789   18.5035 N    0  0  0  0  0  0  0  0  0  0  0  0
   10.0645   15.2218   20.8112 C    0  0  0  0  0  0  0  0  0  0  0  0
   10.9835   16.1237   21.6800 C    0  0  0  0  0  0  0  0  0  0  0  0
   10.8645   15.7445   23.1735 C    0  0  0  0  0  0  0  0  0  0  0  0
    9.3842   15.6744   23.6517 C    0  0  0  0  0  0  0  0  0  0  0  0
    8.5991   15.2009   21.3622 C    0  0  0  0  0  0  0  0  0  0  0  0
    8.4729   14.8109   22.8089 N    0  0  0  0  0  0  0  0  0  0  0  0
    7.5385   13.8820   23.2518 C    0  0  0  0  0  0  0  0  0  0  0  0
    6.8685   13.2320   22.4608 O    0  0  0  0  0  0  0  0  0  0  0  0
    7.4319   13.4739   24.7421 C    0  0  0  0  0  0  0  0  0  0  0  0
    5.9599   13.4692   25.2431 C    0  0  0  0  0  0  0  0  0  0  0  0
    8.2271   12.1774   24.8843 C    0  0  0  0  0  0  0  0  0  0  0  0
    9.9968   12.1634   24.7953 S    0  0  0  0  0  0  0  0  0  0  0  0
    9.9419   10.4061   24.6851 C    0  0  0  0  0  0  0  0  0  0  0  0
    8.6571    9.9040   24.7894 C    0  0  0  0  0  0  0  0  0  0  0  0
    7.6957   10.8933   24.9180 C    0  0  0  0  0  0  0  0  0  0  0  0
   10.6889   14.9361   17.5059 H    0  0  0  0  0  0  0  0  0  0  0  0
   11.0045   13.8533   18.8329 H    0  0  0  0  0  0  0  0  0  0  0  0
   10.4391   14.1949   20.9101 H    0  0  0  0  0  0  0  0  0  0  0  0
   12.0228   16.0096   21.3595 H    0  0  0  0  0  0  0  0  0  0  0  0
   10.7187   17.1790   21.5477 H    0  0  0  0  0  0  0  0  0  0  0  0
   11.3516   14.7809   23.3417 H    0  0  0  0  0  0  0  0  0  0  0  0
   11.4073   16.4777   23.7782 H    0  0  0  0  0  0  0  0  0  0  0  0
    9.4565   15.3602   24.6876 H    0  0  0  0  0  0  0  0  0  0  0  0
    8.9652   16.6850   23.6907 H    0  0  0  0  0  0  0  0  0  0  0  0
    8.0254   14.5424   20.7058 H    0  0  0  0  0  0  0  0  0  0  0  0
    8.1429   16.1879   21.2454 H    0  0  0  0  0  0  0  0  0  0  0  0
    7.8869   14.1916   25.4156 H    0  0  0  0  0  0  0  0  0  0  0  0
    5.3306   12.7861   24.6681 H    0  0  0  0  0  0  0  0  0  0  0  0
    5.5349   14.4713   25.1554 H    0  0  0  0  0  0  0  0  0  0  0  0
    5.9108   13.1741   26.2948 H    0  0  0  0  0  0  0  0  0  0  0  0
   10.8300    9.7963   24.5535 H    0  0  0  0  0  0  0  0  0  0  0  0
    8.4242    8.8470   24.7560 H    0  0  0  0  0  0  0  0  0  0  0  0
    6.6332   10.6683   24.9718 H    0  0  0  0  0  0  0  0  0  0  0  0
  7  9  1  0  0  0  0
  6  7  1  0  0  0  0
  5  6  1  0  0  0  0
  4  5  1  0  0  0  0
  2  4  1  0  0  0  0
  1  2  2  0  0  0  0
  3  2  1  0  0  0  0
 19  3  1  0  0  0  0
 20  3  1  0  0  0  0
 21  4  1  0  0  0  0
 22  5  1  0  0  0  0
 23  5  1  0  0  0  0
 24  6  1  0  0  0  0
 25  6  1  0  0  0  0
 26  7  1  0  0  0  0
 27  7  1  0  0  0  0
  8  4  1  0  0  0  0
 28  8  1  0  0  0  0
 29  8  1  0  0  0  0
 10  9  1  0  0  0  0
 11 10  2  0  0  0  0
 12 10  1  0  0  0  0
 13 12  1  0  0  0  0
 30 12  1  0  0  0  0
 31 13  1  0  0  0  0
 32 13  1  0  0  0  0
 33 13  1  0  0  0  0
 14 12  1  0  0  0  0
 18 14  2  0  0  0  0
 15 14  1  0  0  0  0
 16 15  1  0  0  0  0
 34 16  1  0  0  0  0
 17 16  2  0  0  0  0
 35 17  1  0  0  0  0
 36 18  1  0  0  0  0
  9  8  1  0  0  0  0
 18 17  1  0  0  0  0
M  END
>  <FittedScore>
-31.55

$$$$
