A71EV2A-x5824a_lowest-energy
  FITTED

 36 38     0  0  0  0  0  0  0999 V2000
   10.6192   14.8908   18.7771 N    0  0  0  0  0  0  0  0  0  0  0  0
   10.4154   15.8381   19.7097 C    0  0  0  0  0  0  0  0  0  0  0  0
    9.8291   16.8632   19.4218 O    0  0  0  0  0  0  0  0  0  0  0  0
   10.6465   15.3928   21.1475 C    0  0  0  0  0  0  0  0  0  0  0  0
   11.3174   16.4169   22.0772 C    0  0  0  0  0  0  0  0  0  0  0  0
   10.8636   15.9524   23.4762 C    0  0  0  0  0  0  0  0  0  0  0  0
    9.5777   15.2373   23.3210 N    0  0  0  0  0  0  0  0  0  0  0  0
    8.7477   14.8763   24.3513 C    0  0  0  0  0  0  0  0  0  0  0  0
    9.1061   14.9962   25.5110 O    0  0  0  0  0  0  0  0  0  0  0  0
    7.3162   14.4209   24.0210 C    0  0  0  0  0  0  0  0  0  0  0  0
    6.7484   13.4723   25.0098 N    0  0  0  0  0  0  0  0  0  0  0  0
    5.7853   13.8352   25.9091 C    0  0  0  0  0  0  0  0  0  0  0  0
    5.3555   14.9566   26.1092 O    0  0  0  0  0  0  0  0  0  0  0  0
    5.1276   12.3691   26.6736 S    0  0  0  0  0  0  0  0  0  0  0  0
    6.2318   11.3350   25.7874 C    0  0  0  0  0  0  0  0  0  0  0  0
    6.3062    9.9359   25.8430 C    0  0  0  0  0  0  0  0  0  0  0  0
    7.2515    9.2759   25.0365 C    0  0  0  0  0  0  0  0  0  0  0  0
    8.1363   10.0304   24.2429 C    0  0  0  0  0  0  0  0  0  0  0  0
    9.3562    9.2512   23.3041 CL   0  0  0  0  0  0  0  0  0  0  0  0
    8.0524   11.4317   24.2044 C    0  0  0  0  0  0  0  0  0  0  0  0
    7.0601   12.0753   24.9661 C    0  0  0  0  0  0  0  0  0  0  0  0
    9.3421   15.0329   21.8763 C    0  0  0  0  0  0  0  0  0  0  0  0
   10.8408   13.9325   19.0486 H    0  0  0  0  0  0  0  0  0  0  0  0
   10.5323   15.1358   17.7970 H    0  0  0  0  0  0  0  0  0  0  0  0
   11.2883   14.5041   21.1584 H    0  0  0  0  0  0  0  0  0  0  0  0
   10.9643   17.4359   21.8900 H    0  0  0  0  0  0  0  0  0  0  0  0
   12.4065   16.4055   21.9794 H    0  0  0  0  0  0  0  0  0  0  0  0
   10.7442   16.8153   24.1423 H    0  0  0  0  0  0  0  0  0  0  0  0
   11.6106   15.2838   23.9201 H    0  0  0  0  0  0  0  0  0  0  0  0
    7.2337   13.9238   23.0524 H    0  0  0  0  0  0  0  0  0  0  0  0
    6.6956   15.3145   23.9113 H    0  0  0  0  0  0  0  0  0  0  0  0
    5.6427    9.3680   26.4900 H    0  0  0  0  0  0  0  0  0  0  0  0
    7.3184    8.1834   25.0644 H    0  0  0  0  0  0  0  0  0  0  0  0
    8.7476   11.9911   23.5810 H    0  0  0  0  0  0  0  0  0  0  0  0
    8.5067   15.6619   21.5511 H    0  0  0  0  0  0  0  0  0  0  0  0
    9.0946   13.9892   21.6613 H    0  0  0  0  0  0  0  0  0  0  0  0
  7  8  1  0  0  0  0
  6  7  1  0  0  0  0
  5  6  1  0  0  0  0
  4  5  1  0  0  0  0
  2  4  1  0  0  0  0
  1  2  1  0  0  0  0
 23  1  1  0  0  0  0
 24  1  1  0  0  0  0
  3  2  2  0  0  0  0
 25  4  1  0  0  0  0
 26  5  1  0  0  0  0
 27  5  1  0  0  0  0
 28  6  1  0  0  0  0
 29  6  1  0  0  0  0
 22  7  1  0  0  0  0
  9  8  2  0  0  0  0
 10  8  1  0  0  0  0
 11 10  1  0  0  0  0
 30 10  1  0  0  0  0
 31 10  1  0  0  0  0
 12 11  1  0  0  0  0
 13 12  2  0  0  0  0
 14 12  1  0  0  0  0
 15 14  1  0  0  0  0
 16 15  2  0  0  0  0
 17 16  1  0  0  0  0
 32 16  1  0  0  0  0
 18 17  2  0  0  0  0
 33 17  1  0  0  0  0
 19 18  1  0  0  0  0
 20 18  1  0  0  0  0
 21 20  2  0  0  0  0
 34 20  1  0  0  0  0
 35 22  1  0  0  0  0
 36 22  1  0  0  0  0
 21 11  1  0  0  0  0
 21 15  1  0  0  0  0
 22  4  1  0  0  0  0
M  END
>  <FittedScore>
-31.42

$$$$
