A71EV2A-x5824a_best-RMSD
  FITTED

 36 38     0  0  0  0  0  0  0999 V2000
   10.5204   14.8316   18.7802 N    0  0  0  0  0  0  0  0  0  0  0  0
   10.3371   15.7864   19.7113 C    0  0  0  0  0  0  0  0  0  0  0  0
    9.8204   16.8418   19.4006 O    0  0  0  0  0  0  0  0  0  0  0  0
   10.5196   15.3266   21.1553 C    0  0  0  0  0  0  0  0  0  0  0  0
   11.2900   16.2940   22.0689 C    0  0  0  0  0  0  0  0  0  0  0  0
   10.7732   15.9293   23.4749 C    0  0  0  0  0  0  0  0  0  0  0  0
    9.4464   15.2834   23.3263 N    0  0  0  0  0  0  0  0  0  0  0  0
    8.6333   14.9093   24.3648 C    0  0  0  0  0  0  0  0  0  0  0  0
    9.0490   14.9301   25.5113 O    0  0  0  0  0  0  0  0  0  0  0  0
    7.1718   14.5255   24.0751 C    0  0  0  0  0  0  0  0  0  0  0  0
    6.5957   13.5792   25.0633 N    0  0  0  0  0  0  0  0  0  0  0  0
    5.6269   13.9390   25.9630 C    0  0  0  0  0  0  0  0  0  0  0  0
    5.1884   15.0554   26.1678 O    0  0  0  0  0  0  0  0  0  0  0  0
    4.9890   12.4720   26.7422 S    0  0  0  0  0  0  0  0  0  0  0  0
    6.1056   11.4424   25.8655 C    0  0  0  0  0  0  0  0  0  0  0  0
    6.1935   10.0457   25.9285 C    0  0  0  0  0  0  0  0  0  0  0  0
    7.1519    9.3964   25.1296 C    0  0  0  0  0  0  0  0  0  0  0  0
    8.0356   10.1428   24.3243 C    0  0  0  0  0  0  0  0  0  0  0  0
    9.2718    9.3477   23.4095 CL   0  0  0  0  0  0  0  0  0  0  0  0
    7.9225   11.5426   24.2667 C    0  0  0  0  0  0  0  0  0  0  0  0
    6.9257   12.1832   25.0309 C    0  0  0  0  0  0  0  0  0  0  0  0
    9.1837   15.1122   21.8854 C    0  0  0  0  0  0  0  0  0  0  0  0
   10.4084   15.0579   17.8022 H    0  0  0  0  0  0  0  0  0  0  0  0
   10.7434   13.8762   19.0406 H    0  0  0  0  0  0  0  0  0  0  0  0
   11.0665   14.3745   21.1756 H    0  0  0  0  0  0  0  0  0  0  0  0
   11.0564   17.3387   21.8410 H    0  0  0  0  0  0  0  0  0  0  0  0
   12.3728   16.1610   21.9855 H    0  0  0  0  0  0  0  0  0  0  0  0
   10.6839   16.8311   24.0896 H    0  0  0  0  0  0  0  0  0  0  0  0
   11.4685   15.2476   23.9746 H    0  0  0  0  0  0  0  0  0  0  0  0
    7.0411   14.0499   23.1018 H    0  0  0  0  0  0  0  0  0  0  0  0
    6.5844   15.4443   24.0025 H    0  0  0  0  0  0  0  0  0  0  0  0
    5.5276    9.4752   26.5722 H    0  0  0  0  0  0  0  0  0  0  0  0
    7.2281    8.3088   25.1620 H    0  0  0  0  0  0  0  0  0  0  0  0
    8.6005   12.1067   23.6308 H    0  0  0  0  0  0  0  0  0  0  0  0
    8.4300   15.8384   21.5636 H    0  0  0  0  0  0  0  0  0  0  0  0
    8.8197   14.1066   21.6587 H    0  0  0  0  0  0  0  0  0  0  0  0
  7  8  1  0  0  0  0
  6  7  1  0  0  0  0
  5  6  1  0  0  0  0
  4  5  1  0  0  0  0
  2  4  1  0  0  0  0
  1  2  1  0  0  0  0
 23  1  1  0  0  0  0
 24  1  1  0  0  0  0
  3  2  2  0  0  0  0
 25  4  1  0  0  0  0
 26  5  1  0  0  0  0
 27  5  1  0  0  0  0
 28  6  1  0  0  0  0
 29  6  1  0  0  0  0
 22  7  1  0  0  0  0
  9  8  2  0  0  0  0
 10  8  1  0  0  0  0
 11 10  1  0  0  0  0
 30 10  1  0  0  0  0
 31 10  1  0  0  0  0
 12 11  1  0  0  0  0
 13 12  2  0  0  0  0
 14 12  1  0  0  0  0
 15 14  1  0  0  0  0
 16 15  2  0  0  0  0
 17 16  1  0  0  0  0
 32 16  1  0  0  0  0
 18 17  2  0  0  0  0
 33 17  1  0  0  0  0
 19 18  1  0  0  0  0
 20 18  1  0  0  0  0
 21 20  2  0  0  0  0
 34 20  1  0  0  0  0
 35 22  1  0  0  0  0
 36 22  1  0  0  0  0
 21 11  1  0  0  0  0
 21 15  1  0  0  0  0
 22  4  1  0  0  0  0
M  END
>  <FittedScore>
-31.11

$$$$
