A71EV2A-x5802a_lowest-energy
  FITTED

 37 39     0  0  0  0  0  0  0999 V2000
   10.8031   14.8245   18.7719 N    0  0  0  0  0  0  0  0  0  0  0  0
   10.4004   15.6784   19.7251 C    0  0  0  0  0  0  0  0  0  0  0  0
   10.0584   16.7977   19.4269 O    0  0  0  0  0  0  0  0  0  0  0  0
   10.3528   15.1531   21.1539 C    0  0  0  0  0  0  0  0  0  0  0  0
   11.0998   16.1458   22.0777 C    0  0  0  0  0  0  0  0  0  0  0  0
   11.0634   15.7527   23.5430 C    0  0  0  0  0  0  0  0  0  0  0  0
   10.8889   14.4937   24.3403 C    0  0  0  0  0  0  0  0  0  0  0  0
    9.6922   15.2990   23.9443 C    0  0  0  0  0  0  0  0  0  0  0  0
    8.7387   14.5723   23.0401 N    0  0  0  0  0  0  0  0  0  0  0  0
    7.9630   13.5589   23.5381 C    0  0  0  0  0  0  0  0  0  0  0  0
    7.2106   12.9626   22.8097 O    0  0  0  0  0  0  0  0  0  0  0  0
    8.0977   13.1624   25.0069 C    0  0  0  0  0  0  0  0  0  0  0  0
    7.1894   12.0303   25.4173 C    0  0  0  0  0  0  0  0  0  0  0  0
    6.0745   12.3753   26.1873 C    0  0  0  0  0  0  0  0  0  0  0  0
    5.3397   11.3725   26.8254 C    0  0  0  0  0  0  0  0  0  0  0  0
    5.7022   10.0380   26.6730 C    0  0  0  0  0  0  0  0  0  0  0  0
    6.7201    9.6857   25.7743 C    0  0  0  0  0  0  0  0  0  0  0  0
    7.4465   10.6785   25.1112 C    0  0  0  0  0  0  0  0  0  0  0  0
    8.6380   10.2009   23.9250 CL   0  0  0  0  0  0  0  0  0  0  0  0
    8.8679   14.8542   21.5871 C    0  0  0  0  0  0  0  0  0  0  0  0
   10.6475   15.0809   17.7877 H    0  0  0  0  0  0  0  0  0  0  0  0
   11.0587   13.8870   18.9992 H    0  0  0  0  0  0  0  0  0  0  0  0
   10.8769   14.1920   21.1843 H    0  0  0  0  0  0  0  0  0  0  0  0
   10.6008   17.1115   22.0256 H    0  0  0  0  0  0  0  0  0  0  0  0
   12.1263   16.3053   21.7177 H    0  0  0  0  0  0  0  0  0  0  0  0
   11.6876   16.4159   24.1250 H    0  0  0  0  0  0  0  0  0  0  0  0
   11.0804   14.5306   25.4130 H    0  0  0  0  0  0  0  0  0  0  0  0
   11.0382   13.5137   23.8911 H    0  0  0  0  0  0  0  0  0  0  0  0
    9.0382   15.9512   24.5222 H    0  0  0  0  0  0  0  0  0  0  0  0
    7.9002   14.0568   25.5956 H    0  0  0  0  0  0  0  0  0  0  0  0
    9.0975   12.8518   25.3205 H    0  0  0  0  0  0  0  0  0  0  0  0
    5.7881   13.4005   26.3020 H    0  0  0  0  0  0  0  0  0  0  0  0
    4.5057   11.6821   27.4568 H    0  0  0  0  0  0  0  0  0  0  0  0
    5.1790    9.2791   27.2404 H    0  0  0  0  0  0  0  0  0  0  0  0
    6.9726    8.6414   25.6040 H    0  0  0  0  0  0  0  0  0  0  0  0
    8.1598   15.6283   21.3169 H    0  0  0  0  0  0  0  0  0  0  0  0
    8.5699   13.9759   20.9922 H    0  0  0  0  0  0  0  0  0  0  0  0
  9 10  1  0  0  0  0
  8  9  1  0  0  0  0
  7  8  1  0  0  0  0
  6  7  1  0  0  0  0
  5  6  1  0  0  0  0
  4  5  1  0  0  0  0
  2  4  1  0  0  0  0
  1  2  1  0  0  0  0
 21  1  1  0  0  0  0
 22  1  1  0  0  0  0
  3  2  2  0  0  0  0
 23  4  1  0  0  0  0
 24  5  1  0  0  0  0
 25  5  1  0  0  0  0
 26  6  1  0  0  0  0
 27  7  1  0  0  0  0
 28  7  1  0  0  0  0
 29  8  1  0  0  0  0
 20  9  1  0  0  0  0
 11 10  2  0  0  0  0
 12 10  1  0  0  0  0
 13 12  1  0  0  0  0
 30 12  1  0  0  0  0
 31 12  1  0  0  0  0
 14 13  2  0  0  0  0
 15 14  1  0  0  0  0
 32 14  1  0  0  0  0
 16 15  2  0  0  0  0
 33 15  1  0  0  0  0
 17 16  1  0  0  0  0
 34 16  1  0  0  0  0
 18 17  2  0  0  0  0
 35 17  1  0  0  0  0
 19 18  1  0  0  0  0
 36 20  1  0  0  0  0
 37 20  1  0  0  0  0
  8  6  1  0  0  0  0
 18 13  1  0  0  0  0
 20  4  1  0  0  0  0
M  END
>  <FittedScore>
-33.28

$$$$
