A71EV2A-x4524a_best-RMSD
  FITTED

 39 40     0  0  0  0  0  0  0999 V2000
    7.7478   10.7781   25.4731 CL   0  0  0  0  0  0  0  0  0  0  0  0
    6.5185   11.8157   26.1303 C    0  0  0  0  0  0  0  0  0  0  0  0
    5.5689   11.2942   27.0362 C    0  0  0  0  0  0  0  0  0  0  0  0
    5.6736    9.9705   27.4436 O    0  0  0  0  0  0  0  0  0  0  0  0
    4.9657    9.4168   28.5779 C    0  0  0  0  0  0  0  0  0  0  0  0
    6.4795   13.1847   25.7885 C    0  0  0  0  0  0  0  0  0  0  0  0
    5.4924   14.0131   26.3455 C    0  0  0  0  0  0  0  0  0  0  0  0
    4.5151   13.4763   27.1948 C    0  0  0  0  0  0  0  0  0  0  0  0
    4.5339   12.1204   27.5173 C    0  0  0  0  0  0  0  0  0  0  0  0
    7.5022   13.7945   24.9882 N    0  0  0  0  0  0  0  0  0  0  0  0
    7.7488   13.7058   23.6541 C    0  0  0  0  0  0  0  0  0  0  0  0
    6.9717   13.1256   22.9100 O    0  0  0  0  0  0  0  0  0  0  0  0
    8.8231   14.4425   23.2035 N    0  0  0  0  0  0  0  0  0  0  0  0
    8.8808   14.9451   21.7925 C    0  0  0  0  0  0  0  0  0  0  0  0
   10.2952   14.9771   21.1488 C    0  0  0  0  0  0  0  0  0  0  0  0
   10.2564   15.5029   19.7152 C    0  0  0  0  0  0  0  0  0  0  0  0
    9.6692   16.5059   19.3565 O    0  0  0  0  0  0  0  0  0  0  0  0
   10.7627   14.6596   18.7988 N    0  0  0  0  0  0  0  0  0  0  0  0
   11.3069   15.7494   22.0326 C    0  0  0  0  0  0  0  0  0  0  0  0
   11.3379   15.1010   23.4382 C    0  0  0  0  0  0  0  0  0  0  0  0
    9.9217   15.0105   24.0773 C    0  0  0  0  0  0  0  0  0  0  0  0
    5.3221    8.3990   28.7398 H    0  0  0  0  0  0  0  0  0  0  0  0
    3.8934    9.3879   28.3880 H    0  0  0  0  0  0  0  0  0  0  0  0
    5.1571   10.0120   29.4744 H    0  0  0  0  0  0  0  0  0  0  0  0
    5.4818   15.0755   26.1137 H    0  0  0  0  0  0  0  0  0  0  0  0
    3.7490   14.1248   27.6100 H    0  0  0  0  0  0  0  0  0  0  0  0
    3.7655   11.7289   28.1783 H    0  0  0  0  0  0  0  0  0  0  0  0
    8.0694   14.4347   25.5339 H    0  0  0  0  0  0  0  0  0  0  0  0
    8.2553   14.3420   21.1283 H    0  0  0  0  0  0  0  0  0  0  0  0
    8.4402   15.9456   21.7805 H    0  0  0  0  0  0  0  0  0  0  0  0
   10.6313   13.9333   21.1238 H    0  0  0  0  0  0  0  0  0  0  0  0
   10.6740   14.8868   17.8203 H    0  0  0  0  0  0  0  0  0  0  0  0
   11.0448   13.7204   19.0705 H    0  0  0  0  0  0  0  0  0  0  0  0
   12.3069   15.7043   21.5916 H    0  0  0  0  0  0  0  0  0  0  0  0
   11.0350   16.8068   22.1071 H    0  0  0  0  0  0  0  0  0  0  0  0
   11.7710   14.0963   23.3796 H    0  0  0  0  0  0  0  0  0  0  0  0
   11.9923   15.6804   24.0948 H    0  0  0  0  0  0  0  0  0  0  0  0
   10.0451   14.4143   24.9879 H    0  0  0  0  0  0  0  0  0  0  0  0
    9.6161   16.0124   24.4025 H    0  0  0  0  0  0  0  0  0  0  0  0
 10 11  1  0  0  0  0
  6 10  1  0  0  0  0
  2  6  2  0  0  0  0
  1  2  1  0  0  0  0
  3  2  1  0  0  0  0
  9  3  2  0  0  0  0
  4  3  1  0  0  0  0
  5  4  1  0  0  0  0
 22  5  1  0  0  0  0
 23  5  1  0  0  0  0
 24  5  1  0  0  0  0
  7  6  1  0  0  0  0
 25  7  1  0  0  0  0
  8  7  2  0  0  0  0
 26  8  1  0  0  0  0
 27  9  1  0  0  0  0
 28 10  1  0  0  0  0
 12 11  2  0  0  0  0
 13 11  1  0  0  0  0
 21 13  1  0  0  0  0
 14 13  1  0  0  0  0
 29 14  1  0  0  0  0
 30 14  1  0  0  0  0
 15 14  1  0  0  0  0
 16 15  1  0  0  0  0
 31 15  1  0  0  0  0
 17 16  2  0  0  0  0
 18 16  1  0  0  0  0
 32 18  1  0  0  0  0
 33 18  1  0  0  0  0
 19 15  1  0  0  0  0
 34 19  1  0  0  0  0
 35 19  1  0  0  0  0
 20 19  1  0  0  0  0
 36 20  1  0  0  0  0
 37 20  1  0  0  0  0
 38 21  1  0  0  0  0
 39 21  1  0  0  0  0
  9  8  1  0  0  0  0
 21 20  1  0  0  0  0
M  END
>  <FittedScore>
-29.09

$$$$
