A71EV2A-x6027a_best-RMSD
  FITTED

 47 48     0  0  0  0  0  0  0999 V2000
    6.1902   13.9743   27.6368 C    0  0  0  0  0  0  0  0  0  0  0  0
    5.7434   13.4892   26.4802 C    0  0  0  0  0  0  0  0  0  0  0  0
    4.8287   14.2664   25.5488 C    0  0  0  0  0  0  0  0  0  0  0  0
    6.1932   12.1147   26.0790 C    0  0  0  0  0  0  0  0  0  0  0  0
    5.3444   11.0461   26.4092 C    0  0  0  0  0  0  0  0  0  0  0  0
    5.6609    9.7500   26.0160 C    0  0  0  0  0  0  0  0  0  0  0  0
    6.8306    9.4998   25.2962 C    0  0  0  0  0  0  0  0  0  0  0  0
    7.7252   10.5372   24.9652 C    0  0  0  0  0  0  0  0  0  0  0  0
    9.2359   10.1931   24.0307 S    0  0  0  0  0  0  0  0  0  0  0  0
    9.2224    8.4682   23.4684 C    0  0  0  0  0  0  0  0  0  0  0  0
    7.4068   11.8664   25.3715 C    0  0  0  0  0  0  0  0  0  0  0  0
    8.3347   13.0414   25.0004 C    0  0  0  0  0  0  0  0  0  0  0  0
    8.1296   13.5965   23.5754 C    0  0  0  0  0  0  0  0  0  0  0  0
    7.3203   13.0711   22.8223 O    0  0  0  0  0  0  0  0  0  0  0  0
    8.9312   14.6396   23.1546 N    0  0  0  0  0  0  0  0  0  0  0  0
    9.8636   15.4660   24.0048 C    0  0  0  0  0  0  0  0  0  0  0  0
   11.3184   15.4835   23.4624 C    0  0  0  0  0  0  0  0  0  0  0  0
   11.3733   15.9956   22.0012 C    0  0  0  0  0  0  0  0  0  0  0  0
   10.3690   15.2126   21.1120 C    0  0  0  0  0  0  0  0  0  0  0  0
   10.3717   15.7526   19.6816 C    0  0  0  0  0  0  0  0  0  0  0  0
   10.8230   14.8887   18.7541 N    0  0  0  0  0  0  0  0  0  0  0  0
    9.9405   16.8416   19.3517 O    0  0  0  0  0  0  0  0  0  0  0  0
    8.9390   15.1538   21.7410 C    0  0  0  0  0  0  0  0  0  0  0  0
    5.9010   14.9686   27.9726 H    0  0  0  0  0  0  0  0  0  0  0  0
    6.8655   13.3932   28.2673 H    0  0  0  0  0  0  0  0  0  0  0  0
    4.9946   15.3456   25.6237 H    0  0  0  0  0  0  0  0  0  0  0  0
    3.7841   14.0487   25.7785 H    0  0  0  0  0  0  0  0  0  0  0  0
    4.9978   13.9894   24.5068 H    0  0  0  0  0  0  0  0  0  0  0  0
    4.4240   11.2257   26.9608 H    0  0  0  0  0  0  0  0  0  0  0  0
    4.9833    8.9311   26.2531 H    0  0  0  0  0  0  0  0  0  0  0  0
    7.0103    8.4767   24.9876 H    0  0  0  0  0  0  0  0  0  0  0  0
   10.1107    8.2788   22.8582 H    0  0  0  0  0  0  0  0  0  0  0  0
    8.3384    8.2608   22.8549 H    0  0  0  0  0  0  0  0  0  0  0  0
    9.2420    7.8011   24.3343 H    0  0  0  0  0  0  0  0  0  0  0  0
    9.3777   12.7423   25.1326 H    0  0  0  0  0  0  0  0  0  0  0  0
    8.2174   13.8443   25.7265 H    0  0  0  0  0  0  0  0  0  0  0  0
    9.9209   15.1449   25.0429 H    0  0  0  0  0  0  0  0  0  0  0  0
    9.4865   16.4937   24.0542 H    0  0  0  0  0  0  0  0  0  0  0  0
   11.7434   14.4748   23.5188 H    0  0  0  0  0  0  0  0  0  0  0  0
   11.9362   16.1245   24.0966 H    0  0  0  0  0  0  0  0  0  0  0  0
   12.3874   15.8690   21.6129 H    0  0  0  0  0  0  0  0  0  0  0  0
   11.1515   17.0675   21.9753 H    0  0  0  0  0  0  0  0  0  0  0  0
   10.7244   14.1723   21.0982 H    0  0  0  0  0  0  0  0  0  0  0  0
   10.8253   15.1460   17.7778 H    0  0  0  0  0  0  0  0  0  0  0  0
   11.0359   13.9334   19.0193 H    0  0  0  0  0  0  0  0  0  0  0  0
    8.3138   14.5465   21.0830 H    0  0  0  0  0  0  0  0  0  0  0  0
    8.4855   16.1531   21.7161 H    0  0  0  0  0  0  0  0  0  0  0  0
 12 13  1  0  0  0  0
 11 12  1  0  0  0  0
  8 11  2  0  0  0  0
  7  8  1  0  0  0  0
  6  7  2  0  0  0  0
  5  6  1  0  0  0  0
  4  5  2  0  0  0  0
  2  4  1  0  0  0  0
  1  2  2  0  0  0  0
 24  1  1  0  0  0  0
 25  1  1  0  0  0  0
  3  2  1  0  0  0  0
 26  3  1  0  0  0  0
 27  3  1  0  0  0  0
 28  3  1  0  0  0  0
 29  5  1  0  0  0  0
 30  6  1  0  0  0  0
 31  7  1  0  0  0  0
  9  8  1  0  0  0  0
 10  9  1  0  0  0  0
 32 10  1  0  0  0  0
 33 10  1  0  0  0  0
 34 10  1  0  0  0  0
 35 12  1  0  0  0  0
 36 12  1  0  0  0  0
 14 13  2  0  0  0  0
 15 13  1  0  0  0  0
 16 15  1  0  0  0  0
 17 16  1  0  0  0  0
 37 16  1  0  0  0  0
 38 16  1  0  0  0  0
 18 17  1  0  0  0  0
 39 17  1  0  0  0  0
 40 17  1  0  0  0  0
 19 18  1  0  0  0  0
 41 18  1  0  0  0  0
 42 18  1  0  0  0  0
 20 19  1  0  0  0  0
 23 19  1  0  0  0  0
 43 19  1  0  0  0  0
 21 20  1  0  0  0  0
 22 20  2  0  0  0  0
 44 21  1  0  0  0  0
 45 21  1  0  0  0  0
 46 23  1  0  0  0  0
 47 23  1  0  0  0  0
 11  4  1  0  0  0  0
 23 15  1  0  0  0  0
M  END
>  <FittedScore>
-35.16

$$$$
