A71EV2A-x6027a_lowest-energy
  FITTED

 47 48     0  0  0  0  0  0  0999 V2000
    5.8947   13.5946   27.8969 C    0  0  0  0  0  0  0  0  0  0  0  0
    5.6506   13.2866   26.6227 C    0  0  0  0  0  0  0  0  0  0  0  0
    4.8638   14.1714   25.6698 C    0  0  0  0  0  0  0  0  0  0  0  0
    6.1829   11.9779   26.1191 C    0  0  0  0  0  0  0  0  0  0  0  0
    5.4032   10.8435   26.3978 C    0  0  0  0  0  0  0  0  0  0  0  0
    5.8058    9.5867   25.9592 C    0  0  0  0  0  0  0  0  0  0  0  0
    6.9925    9.4450   25.2366 C    0  0  0  0  0  0  0  0  0  0  0  0
    7.8073   10.5545   24.9377 C    0  0  0  0  0  0  0  0  0  0  0  0
    9.3370   10.3387   23.9938 S    0  0  0  0  0  0  0  0  0  0  0  0
    9.5257    8.5868   23.5488 C    0  0  0  0  0  0  0  0  0  0  0  0
    7.3968   11.8444   25.3842 C    0  0  0  0  0  0  0  0  0  0  0  0
    8.2418   13.0904   25.0389 C    0  0  0  0  0  0  0  0  0  0  0  0
    8.0941   13.5766   23.5846 C    0  0  0  0  0  0  0  0  0  0  0  0
    7.2532   13.0655   22.8605 O    0  0  0  0  0  0  0  0  0  0  0  0
    8.9190   14.5856   23.1216 N    0  0  0  0  0  0  0  0  0  0  0  0
    9.8093   15.4607   23.9656 C    0  0  0  0  0  0  0  0  0  0  0  0
   11.2653   15.5655   23.4386 C    0  0  0  0  0  0  0  0  0  0  0  0
   11.3000   16.0692   21.9774 C    0  0  0  0  0  0  0  0  0  0  0  0
   10.3658   15.2031   21.0882 C    0  0  0  0  0  0  0  0  0  0  0  0
   10.3447   15.7399   19.6597 C    0  0  0  0  0  0  0  0  0  0  0  0
   10.8173   14.8829   18.7387 N    0  0  0  0  0  0  0  0  0  0  0  0
    9.9305   16.8413   19.3382 O    0  0  0  0  0  0  0  0  0  0  0  0
    8.9307   15.0470   21.6892 C    0  0  0  0  0  0  0  0  0  0  0  0
    5.5315   14.5269   28.3278 H    0  0  0  0  0  0  0  0  0  0  0  0
    6.4673   12.9238   28.5354 H    0  0  0  0  0  0  0  0  0  0  0  0
    5.5306   14.6647   24.9598 H    0  0  0  0  0  0  0  0  0  0  0  0
    4.2939   14.9444   26.1940 H    0  0  0  0  0  0  0  0  0  0  0  0
    4.1552   13.5731   25.0918 H    0  0  0  0  0  0  0  0  0  0  0  0
    4.4737   10.9386   26.9553 H    0  0  0  0  0  0  0  0  0  0  0  0
    5.1952    8.7131   26.1779 H    0  0  0  0  0  0  0  0  0  0  0  0
    7.2507    8.4447   24.9160 H    0  0  0  0  0  0  0  0  0  0  0  0
    9.5436    7.9722   24.4499 H    0  0  0  0  0  0  0  0  0  0  0  0
   10.4692    8.4465   23.0183 H    0  0  0  0  0  0  0  0  0  0  0  0
    8.7061    8.2767   22.8970 H    0  0  0  0  0  0  0  0  0  0  0  0
    9.2901   12.8748   25.2585 H    0  0  0  0  0  0  0  0  0  0  0  0
    8.0095   13.9182   25.7081 H    0  0  0  0  0  0  0  0  0  0  0  0
    9.8807   15.1423   25.0031 H    0  0  0  0  0  0  0  0  0  0  0  0
    9.3697   16.4614   24.0081 H    0  0  0  0  0  0  0  0  0  0  0  0
   11.7555   14.5863   23.5025 H    0  0  0  0  0  0  0  0  0  0  0  0
   11.8392   16.2515   24.0691 H    0  0  0  0  0  0  0  0  0  0  0  0
   12.3236   16.0045   21.5968 H    0  0  0  0  0  0  0  0  0  0  0  0
   11.0117   17.1248   21.9401 H    0  0  0  0  0  0  0  0  0  0  0  0
   10.7913   14.1904   21.0922 H    0  0  0  0  0  0  0  0  0  0  0  0
   10.8653   15.1665   17.7704 H    0  0  0  0  0  0  0  0  0  0  0  0
   11.0610   13.9307   18.9990 H    0  0  0  0  0  0  0  0  0  0  0  0
    8.3950   14.3511   21.0361 H    0  0  0  0  0  0  0  0  0  0  0  0
    8.3819   15.9920   21.6204 H    0  0  0  0  0  0  0  0  0  0  0  0
 12 13  1  0  0  0  0
 11 12  1  0  0  0  0
  8 11  2  0  0  0  0
  7  8  1  0  0  0  0
  6  7  2  0  0  0  0
  5  6  1  0  0  0  0
  4  5  2  0  0  0  0
  2  4  1  0  0  0  0
  1  2  2  0  0  0  0
 24  1  1  0  0  0  0
 25  1  1  0  0  0  0
  3  2  1  0  0  0  0
 26  3  1  0  0  0  0
 27  3  1  0  0  0  0
 28  3  1  0  0  0  0
 29  5  1  0  0  0  0
 30  6  1  0  0  0  0
 31  7  1  0  0  0  0
  9  8  1  0  0  0  0
 10  9  1  0  0  0  0
 32 10  1  0  0  0  0
 33 10  1  0  0  0  0
 34 10  1  0  0  0  0
 35 12  1  0  0  0  0
 36 12  1  0  0  0  0
 14 13  2  0  0  0  0
 15 13  1  0  0  0  0
 16 15  1  0  0  0  0
 17 16  1  0  0  0  0
 37 16  1  0  0  0  0
 38 16  1  0  0  0  0
 18 17  1  0  0  0  0
 39 17  1  0  0  0  0
 40 17  1  0  0  0  0
 19 18  1  0  0  0  0
 41 18  1  0  0  0  0
 42 18  1  0  0  0  0
 20 19  1  0  0  0  0
 23 19  1  0  0  0  0
 43 19  1  0  0  0  0
 21 20  1  0  0  0  0
 22 20  2  0  0  0  0
 44 21  1  0  0  0  0
 45 21  1  0  0  0  0
 46 23  1  0  0  0  0
 47 23  1  0  0  0  0
 11  4  1  0  0  0  0
 23 15  1  0  0  0  0
M  END
>  <FittedScore>
-35.35

$$$$
