A71EV2A-x4386a_best-RMSD
  FITTED

 40 41     0  0  0  0  0  0  0999 V2000
    9.8878   16.7126   19.1580 O    0  0  0  0  0  0  0  0  0  0  0  0
   10.3892   15.6811   19.5544 C    0  0  0  0  0  0  0  0  0  0  0  0
   10.9318   14.8242   18.6759 N    0  0  0  0  0  0  0  0  0  0  0  0
   10.3914   15.2275   21.0215 C    0  0  0  0  0  0  0  0  0  0  0  0
   11.3824   16.0588   21.8911 C    0  0  0  0  0  0  0  0  0  0  0  0
   11.3072   15.6307   23.3839 C    0  0  0  0  0  0  0  0  0  0  0  0
    9.8414   15.5941   23.9014 C    0  0  0  0  0  0  0  0  0  0  0  0
    8.9576   15.1663   21.6463 C    0  0  0  0  0  0  0  0  0  0  0  0
    8.9458   14.7056   23.0764 N    0  0  0  0  0  0  0  0  0  0  0  0
    8.1670   13.6586   23.5459 C    0  0  0  0  0  0  0  0  0  0  0  0
    7.3967   13.0563   22.8114 O    0  0  0  0  0  0  0  0  0  0  0  0
    8.2562   13.2564   25.0293 C    0  0  0  0  0  0  0  0  0  0  0  0
    7.4612   12.0015   25.4309 C    0  0  0  0  0  0  0  0  0  0  0  0
    7.8496   10.6869   25.0472 C    0  0  0  0  0  0  0  0  0  0  0  0
    9.3232   10.4288   24.0423 S    0  0  0  0  0  0  0  0  0  0  0  0
    9.4345    8.6688   23.5801 C    0  0  0  0  0  0  0  0  0  0  0  0
    6.3079   12.1789   26.2234 C    0  0  0  0  0  0  0  0  0  0  0  0
    5.5610   11.0780   26.6629 C    0  0  0  0  0  0  0  0  0  0  0  0
    5.9485    9.7869   26.2984 C    0  0  0  0  0  0  0  0  0  0  0  0
    7.0729    9.5952   25.4875 C    0  0  0  0  0  0  0  0  0  0  0  0
   11.1788   13.8830   18.9705 H    0  0  0  0  0  0  0  0  0  0  0  0
   10.9164   15.0536   17.6917 H    0  0  0  0  0  0  0  0  0  0  0  0
   10.7625   14.1951   21.0640 H    0  0  0  0  0  0  0  0  0  0  0  0
   12.4037   15.9046   21.5321 H    0  0  0  0  0  0  0  0  0  0  0  0
   11.1735   17.1272   21.7932 H    0  0  0  0  0  0  0  0  0  0  0  0
   11.7584   14.6381   23.5120 H    0  0  0  0  0  0  0  0  0  0  0  0
   11.8966   16.3189   23.9939 H    0  0  0  0  0  0  0  0  0  0  0  0
    9.8736   15.3214   24.9561 H    0  0  0  0  0  0  0  0  0  0  0  0
    9.4408   16.6126   23.8977 H    0  0  0  0  0  0  0  0  0  0  0  0
    8.3603   14.5154   21.0039 H    0  0  0  0  0  0  0  0  0  0  0  0
    8.4869   16.1515   21.5884 H    0  0  0  0  0  0  0  0  0  0  0  0
    9.2941   13.0994   25.3231 H    0  0  0  0  0  0  0  0  0  0  0  0
    7.9172   14.1065   25.6228 H    0  0  0  0  0  0  0  0  0  0  0  0
   10.3248    8.5135   22.9732 H    0  0  0  0  0  0  0  0  0  0  0  0
    8.5498    8.3775   23.0123 H    0  0  0  0  0  0  0  0  0  0  0  0
    9.5262    8.0344   24.4626 H    0  0  0  0  0  0  0  0  0  0  0  0
    5.9818   13.1766   26.5095 H    0  0  0  0  0  0  0  0  0  0  0  0
    4.6789   11.2322   27.2750 H    0  0  0  0  0  0  0  0  0  0  0  0
    5.3745    8.9292   26.6433 H    0  0  0  0  0  0  0  0  0  0  0  0
    7.3321    8.5740   25.2300 H    0  0  0  0  0  0  0  0  0  0  0  0
  9 10  1  0  0  0  0
  7  9  1  0  0  0  0
  6  7  1  0  0  0  0
  5  6  1  0  0  0  0
  4  5  1  0  0  0  0
  2  4  1  0  0  0  0
  1  2  2  0  0  0  0
  3  2  1  0  0  0  0
 21  3  1  0  0  0  0
 22  3  1  0  0  0  0
 23  4  1  0  0  0  0
 24  5  1  0  0  0  0
 25  5  1  0  0  0  0
 26  6  1  0  0  0  0
 27  6  1  0  0  0  0
 28  7  1  0  0  0  0
 29  7  1  0  0  0  0
  8  4  1  0  0  0  0
 30  8  1  0  0  0  0
 31  8  1  0  0  0  0
 11 10  2  0  0  0  0
 12 10  1  0  0  0  0
 32 12  1  0  0  0  0
 33 12  1  0  0  0  0
 13 12  1  0  0  0  0
 14 13  1  0  0  0  0
 20 14  2  0  0  0  0
 15 14  1  0  0  0  0
 16 15  1  0  0  0  0
 34 16  1  0  0  0  0
 35 16  1  0  0  0  0
 36 16  1  0  0  0  0
 17 13  2  0  0  0  0
 37 17  1  0  0  0  0
 18 17  1  0  0  0  0
 38 18  1  0  0  0  0
 19 18  2  0  0  0  0
 39 19  1  0  0  0  0
 40 20  1  0  0  0  0
  9  8  1  0  0  0  0
 20 19  1  0  0  0  0
M  END
>  <FittedScore>
-30.12

$$$$
