A71EV2A-x4386a_lowest-energy
  FITTED

 40 41     0  0  0  0  0  0  0999 V2000
   10.1396   16.8241   19.1506 O    0  0  0  0  0  0  0  0  0  0  0  0
   10.5789   15.7594   19.5370 C    0  0  0  0  0  0  0  0  0  0  0  0
   10.9590   14.8318   18.6487 N    0  0  0  0  0  0  0  0  0  0  0  0
   10.5658   15.2970   20.9910 C    0  0  0  0  0  0  0  0  0  0  0  0
   11.4558   16.2058   21.8847 C    0  0  0  0  0  0  0  0  0  0  0  0
   11.3710   15.7398   23.3587 C    0  0  0  0  0  0  0  0  0  0  0  0
    9.8963   15.6286   23.8299 C    0  0  0  0  0  0  0  0  0  0  0  0
    9.1078   15.1369   21.5396 C    0  0  0  0  0  0  0  0  0  0  0  0
    9.0482   14.7127   22.9825 N    0  0  0  0  0  0  0  0  0  0  0  0
    8.2379   13.6920   23.4483 C    0  0  0  0  0  0  0  0  0  0  0  0
    7.4300   13.1340   22.7187 O    0  0  0  0  0  0  0  0  0  0  0  0
    8.3803   13.2340   24.9134 C    0  0  0  0  0  0  0  0  0  0  0  0
    7.5902   11.9768   25.3114 C    0  0  0  0  0  0  0  0  0  0  0  0
    7.9797   10.6688   24.9099 C    0  0  0  0  0  0  0  0  0  0  0  0
    9.4294   10.4371   23.8742 S    0  0  0  0  0  0  0  0  0  0  0  0
    9.6584    8.6611   23.5685 C    0  0  0  0  0  0  0  0  0  0  0  0
    6.4541   12.1401   26.1293 C    0  0  0  0  0  0  0  0  0  0  0  0
    5.7131   11.0340   26.5597 C    0  0  0  0  0  0  0  0  0  0  0  0
    6.0918    9.7491   26.1625 C    0  0  0  0  0  0  0  0  0  0  0  0
    7.2073    9.5697   25.3377 C    0  0  0  0  0  0  0  0  0  0  0  0
   11.1212   13.8764   18.9501 H    0  0  0  0  0  0  0  0  0  0  0  0
   10.9105   15.0284   17.6588 H    0  0  0  0  0  0  0  0  0  0  0  0
   11.0155   14.2971   21.0533 H    0  0  0  0  0  0  0  0  0  0  0  0
   12.4976   16.1429   21.5494 H    0  0  0  0  0  0  0  0  0  0  0  0
   11.1500   17.2555   21.8022 H    0  0  0  0  0  0  0  0  0  0  0  0
   11.8707   14.7720   23.4722 H    0  0  0  0  0  0  0  0  0  0  0  0
   11.9103   16.4466   23.9939 H    0  0  0  0  0  0  0  0  0  0  0  0
    9.9299   15.3526   24.8813 H    0  0  0  0  0  0  0  0  0  0  0  0
    9.4449   16.6248   23.8209 H    0  0  0  0  0  0  0  0  0  0  0  0
    8.6046   14.4125   20.8912 H    0  0  0  0  0  0  0  0  0  0  0  0
    8.5588   16.0771   21.4235 H    0  0  0  0  0  0  0  0  0  0  0  0
    9.4330   13.0536   25.1452 H    0  0  0  0  0  0  0  0  0  0  0  0
    8.0835   14.0658   25.5578 H    0  0  0  0  0  0  0  0  0  0  0  0
   10.5637    8.5117   22.9783 H    0  0  0  0  0  0  0  0  0  0  0  0
    8.8067    8.2658   23.0120 H    0  0  0  0  0  0  0  0  0  0  0  0
    9.7753    8.1336   24.5169 H    0  0  0  0  0  0  0  0  0  0  0  0
    6.1336   13.1332   26.4382 H    0  0  0  0  0  0  0  0  0  0  0  0
    4.8374   11.1727   27.1874 H    0  0  0  0  0  0  0  0  0  0  0  0
    5.5149    8.8860   26.4841 H    0  0  0  0  0  0  0  0  0  0  0  0
    7.4469    8.5547   25.0423 H    0  0  0  0  0  0  0  0  0  0  0  0
  9 10  1  0  0  0  0
  7  9  1  0  0  0  0
  6  7  1  0  0  0  0
  5  6  1  0  0  0  0
  4  5  1  0  0  0  0
  2  4  1  0  0  0  0
  1  2  2  0  0  0  0
  3  2  1  0  0  0  0
 21  3  1  0  0  0  0
 22  3  1  0  0  0  0
 23  4  1  0  0  0  0
 24  5  1  0  0  0  0
 25  5  1  0  0  0  0
 26  6  1  0  0  0  0
 27  6  1  0  0  0  0
 28  7  1  0  0  0  0
 29  7  1  0  0  0  0
  8  4  1  0  0  0  0
 30  8  1  0  0  0  0
 31  8  1  0  0  0  0
 11 10  2  0  0  0  0
 12 10  1  0  0  0  0
 32 12  1  0  0  0  0
 33 12  1  0  0  0  0
 13 12  1  0  0  0  0
 14 13  1  0  0  0  0
 20 14  2  0  0  0  0
 15 14  1  0  0  0  0
 16 15  1  0  0  0  0
 34 16  1  0  0  0  0
 35 16  1  0  0  0  0
 36 16  1  0  0  0  0
 17 13  2  0  0  0  0
 37 17  1  0  0  0  0
 18 17  1  0  0  0  0
 38 18  1  0  0  0  0
 19 18  2  0  0  0  0
 39 19  1  0  0  0  0
 40 20  1  0  0  0  0
  9  8  1  0  0  0  0
 20 19  1  0  0  0  0
M  END
>  <FittedScore>
-30.07

$$$$
