A71EV2A-x4703a_lowest-energy
  FITTED

 39 40     0  0  0  0  0  0  0999 V2000
    9.7434   16.6590   19.3198 O    0  0  0  0  0  0  0  0  0  0  0  0
   10.2624   15.6374   19.7194 C    0  0  0  0  0  0  0  0  0  0  0  0
   10.8690   14.8133   18.8442 N    0  0  0  0  0  0  0  0  0  0  0  0
   10.1062   15.1217   21.1531 C    0  0  0  0  0  0  0  0  0  0  0  0
   11.1249   15.8225   22.1057 C    0  0  0  0  0  0  0  0  0  0  0  0
   10.8952   15.4310   23.5932 C    0  0  0  0  0  0  0  0  0  0  0  0
    9.4025   15.5571   23.9992 C    0  0  0  0  0  0  0  0  0  0  0  0
    8.6407   15.2751   21.6823 C    0  0  0  0  0  0  0  0  0  0  0  0
    8.4854   14.7823   23.0868 N    0  0  0  0  0  0  0  0  0  0  0  0
    7.6923   13.7033   23.4126 C    0  0  0  0  0  0  0  0  0  0  0  0
    6.9615   13.1381   22.6098 O    0  0  0  0  0  0  0  0  0  0  0  0
    7.7917   13.2566   24.6911 N    0  0  0  0  0  0  0  0  0  0  0  0
    7.4760   11.9679   25.2091 C    0  0  0  0  0  0  0  0  0  0  0  0
    6.5690   11.7759   26.3553 N    0  0  0  0  0  0  0  0  0  0  0  0
    6.5163   10.4144   26.3667 N    0  0  0  0  0  0  0  0  0  0  0  0
    5.6040    9.7707   27.3172 C    0  0  0  0  0  0  0  0  0  0  0  0
    7.3207    9.7870   25.4621 C    0  0  0  0  0  0  0  0  0  0  0  0
    7.9709   10.7645   24.7410 C    0  0  0  0  0  0  0  0  0  0  0  0
    9.2453   10.5774   23.5132 S    0  0  0  0  0  0  0  0  0  0  0  0
    9.5319    8.7845   23.4122 C    0  0  0  0  0  0  0  0  0  0  0  0
   10.8691   15.0528   17.8582 H    0  0  0  0  0  0  0  0  0  0  0  0
   11.0645   13.8574   19.1253 H    0  0  0  0  0  0  0  0  0  0  0  0
   10.3302   14.0481   21.1763 H    0  0  0  0  0  0  0  0  0  0  0  0
   12.1440   15.5486   21.8178 H    0  0  0  0  0  0  0  0  0  0  0  0
   11.0461   16.9102   22.0052 H    0  0  0  0  0  0  0  0  0  0  0  0
   11.2269   14.4016   23.7587 H    0  0  0  0  0  0  0  0  0  0  0  0
   11.5052   16.0722   24.2360 H    0  0  0  0  0  0  0  0  0  0  0  0
    9.3141   15.2784   25.0495 H    0  0  0  0  0  0  0  0  0  0  0  0
    9.1122   16.6112   23.9783 H    0  0  0  0  0  0  0  0  0  0  0  0
    7.9716   14.7626   20.9836 H    0  0  0  0  0  0  0  0  0  0  0  0
    8.3312   16.3257   21.6456 H    0  0  0  0  0  0  0  0  0  0  0  0
    8.0239   13.9283   25.4214 H    0  0  0  0  0  0  0  0  0  0  0  0
    5.4368    8.7167   27.0806 H    0  0  0  0  0  0  0  0  0  0  0  0
    4.6212   10.2484   27.3280 H    0  0  0  0  0  0  0  0  0  0  0  0
    6.0011    9.8131   28.3340 H    0  0  0  0  0  0  0  0  0  0  0  0
    7.4307    8.7111   25.3593 H    0  0  0  0  0  0  0  0  0  0  0  0
   10.3460    8.5916   22.7108 H    0  0  0  0  0  0  0  0  0  0  0  0
    8.6303    8.2803   23.0601 H    0  0  0  0  0  0  0  0  0  0  0  0
    9.8155    8.3970   24.3926 H    0  0  0  0  0  0  0  0  0  0  0  0
  9 10  1  0  0  0  0
  7  9  1  0  0  0  0
  6  7  1  0  0  0  0
  5  6  1  0  0  0  0
  4  5  1  0  0  0  0
  2  4  1  0  0  0  0
  1  2  2  0  0  0  0
  3  2  1  0  0  0  0
 21  3  1  0  0  0  0
 22  3  1  0  0  0  0
 23  4  1  0  0  0  0
 24  5  1  0  0  0  0
 25  5  1  0  0  0  0
 26  6  1  0  0  0  0
 27  6  1  0  0  0  0
 28  7  1  0  0  0  0
 29  7  1  0  0  0  0
  8  4  1  0  0  0  0
 30  8  1  0  0  0  0
 31  8  1  0  0  0  0
 11 10  2  0  0  0  0
 12 10  1  0  0  0  0
 32 12  1  0  0  0  0
 13 12  1  0  0  0  0
 14 13  2  0  0  0  0
 15 14  1  0  0  0  0
 16 15  1  0  0  0  0
 33 16  1  0  0  0  0
 34 16  1  0  0  0  0
 35 16  1  0  0  0  0
 17 15  1  0  0  0  0
 36 17  1  0  0  0  0
 18 17  2  0  0  0  0
 19 18  1  0  0  0  0
 20 19  1  0  0  0  0
 37 20  1  0  0  0  0
 38 20  1  0  0  0  0
 39 20  1  0  0  0  0
  9  8  1  0  0  0  0
 18 13  1  0  0  0  0
M  END
>  <FittedScore>
-34.09

$$$$
