A71EV2A-x4703a_best-RMSD
  FITTED

 39 40     0  0  0  0  0  0  0999 V2000
    9.7261   16.7093   19.3810 O    0  0  0  0  0  0  0  0  0  0  0  0
   10.2495   15.6823   19.7632 C    0  0  0  0  0  0  0  0  0  0  0  0
   10.8483   14.8735   18.8715 N    0  0  0  0  0  0  0  0  0  0  0  0
   10.1149   15.1550   21.1974 C    0  0  0  0  0  0  0  0  0  0  0  0
   11.1071   15.8859   22.1554 C    0  0  0  0  0  0  0  0  0  0  0  0
   10.8893   15.4817   23.6435 C    0  0  0  0  0  0  0  0  0  0  0  0
    9.3914   15.5723   24.0470 C    0  0  0  0  0  0  0  0  0  0  0  0
    8.6484   15.2701   21.7234 C    0  0  0  0  0  0  0  0  0  0  0  0
    8.4971   14.7772   23.1277 N    0  0  0  0  0  0  0  0  0  0  0  0
    7.7099   13.6937   23.4534 C    0  0  0  0  0  0  0  0  0  0  0  0
    6.9594   13.1464   22.6584 O    0  0  0  0  0  0  0  0  0  0  0  0
    7.8246   13.2304   24.7248 N    0  0  0  0  0  0  0  0  0  0  0  0
    7.4885   11.9314   25.2112 C    0  0  0  0  0  0  0  0  0  0  0  0
    6.5669   11.7179   26.3426 N    0  0  0  0  0  0  0  0  0  0  0  0
    6.4854   10.3583   26.3058 N    0  0  0  0  0  0  0  0  0  0  0  0
    5.5324    9.7063   27.2054 C    0  0  0  0  0  0  0  0  0  0  0  0
    7.2937    9.7447   25.3946 C    0  0  0  0  0  0  0  0  0  0  0  0
    7.9597   10.7327   24.7055 C    0  0  0  0  0  0  0  0  0  0  0  0
    9.2065   10.5660   23.4470 S    0  0  0  0  0  0  0  0  0  0  0  0
    9.5027    8.7721   23.3250 C    0  0  0  0  0  0  0  0  0  0  0  0
   10.8680   15.1276   17.8896 H    0  0  0  0  0  0  0  0  0  0  0  0
   11.0699   13.9172   19.1380 H    0  0  0  0  0  0  0  0  0  0  0  0
   10.3713   14.0892   21.2181 H    0  0  0  0  0  0  0  0  0  0  0  0
   12.1361   15.6537   21.8690 H    0  0  0  0  0  0  0  0  0  0  0  0
   10.9834   16.9693   22.0570 H    0  0  0  0  0  0  0  0  0  0  0  0
   11.2456   14.4591   23.8065 H    0  0  0  0  0  0  0  0  0  0  0  0
   11.4829   16.1346   24.2893 H    0  0  0  0  0  0  0  0  0  0  0  0
    9.3040   15.2898   25.0982 H    0  0  0  0  0  0  0  0  0  0  0  0
    9.0775   16.6233   24.0238 H    0  0  0  0  0  0  0  0  0  0  0  0
    7.9963   14.7405   21.0224 H    0  0  0  0  0  0  0  0  0  0  0  0
    8.3172   16.3136   21.6861 H    0  0  0  0  0  0  0  0  0  0  0  0
    8.0377   13.9035   25.4571 H    0  0  0  0  0  0  0  0  0  0  0  0
    4.5383   10.1545   27.1322 H    0  0  0  0  0  0  0  0  0  0  0  0
    5.8557    9.7928   28.2456 H    0  0  0  0  0  0  0  0  0  0  0  0
    5.4142    8.6410   26.9903 H    0  0  0  0  0  0  0  0  0  0  0  0
    7.4002    8.6714   25.2717 H    0  0  0  0  0  0  0  0  0  0  0  0
   10.3018    8.5838   22.6066 H    0  0  0  0  0  0  0  0  0  0  0  0
    8.6007    8.2459   23.0004 H    0  0  0  0  0  0  0  0  0  0  0  0
    9.8163    8.3924   24.2962 H    0  0  0  0  0  0  0  0  0  0  0  0
  9 10  1  0  0  0  0
  7  9  1  0  0  0  0
  6  7  1  0  0  0  0
  5  6  1  0  0  0  0
  4  5  1  0  0  0  0
  2  4  1  0  0  0  0
  1  2  2  0  0  0  0
  3  2  1  0  0  0  0
 21  3  1  0  0  0  0
 22  3  1  0  0  0  0
 23  4  1  0  0  0  0
 24  5  1  0  0  0  0
 25  5  1  0  0  0  0
 26  6  1  0  0  0  0
 27  6  1  0  0  0  0
 28  7  1  0  0  0  0
 29  7  1  0  0  0  0
  8  4  1  0  0  0  0
 30  8  1  0  0  0  0
 31  8  1  0  0  0  0
 11 10  2  0  0  0  0
 12 10  1  0  0  0  0
 32 12  1  0  0  0  0
 13 12  1  0  0  0  0
 14 13  2  0  0  0  0
 15 14  1  0  0  0  0
 16 15  1  0  0  0  0
 33 16  1  0  0  0  0
 34 16  1  0  0  0  0
 35 16  1  0  0  0  0
 17 15  1  0  0  0  0
 36 17  1  0  0  0  0
 18 17  2  0  0  0  0
 19 18  1  0  0  0  0
 20 19  1  0  0  0  0
 37 20  1  0  0  0  0
 38 20  1  0  0  0  0
 39 20  1  0  0  0  0
  9  8  1  0  0  0  0
 18 13  1  0  0  0  0
M  END
>  <FittedScore>
-33.50

$$$$
