A71EV2A-x4449a_lowest-energy
  FITTED

 47 48     0  0  0  0  0  0  0999 V2000
    9.7329   16.8491   19.3245 O    0  0  0  0  0  0  0  0  0  0  0  0
   10.2286   15.7784   19.6184 C    0  0  0  0  0  0  0  0  0  0  0  0
   10.6248   14.9044   18.6754 N    0  0  0  0  0  0  0  0  0  0  0  0
   10.3759   15.2775   21.0389 C    0  0  0  0  0  0  0  0  0  0  0  0
   11.3537   16.1848   21.8225 C    0  0  0  0  0  0  0  0  0  0  0  0
   11.5659   15.5924   23.2273 C    0  0  0  0  0  0  0  0  0  0  0  0
   10.2384   15.2318   23.9474 C    0  0  0  0  0  0  0  0  0  0  0  0
    9.0177   15.1359   21.7866 C    0  0  0  0  0  0  0  0  0  0  0  0
    9.1630   14.5205   23.1481 N    0  0  0  0  0  0  0  0  0  0  0  0
    8.2830   13.5506   23.6291 C    0  0  0  0  0  0  0  0  0  0  0  0
    7.4134   13.0797   22.9087 O    0  0  0  0  0  0  0  0  0  0  0  0
    8.3786   13.0503   25.0894 C    0  0  0  0  0  0  0  0  0  0  0  0
    8.1514   14.1672   26.0432 N    0  0  0  0  0  0  0  0  0  0  0  0
    8.9404   14.4838   27.0964 C    0  0  0  0  0  0  0  0  0  0  0  0
   10.0263   13.9663   27.2873 O    0  0  0  0  0  0  0  0  0  0  0  0
    8.3888   15.5861   27.9852 C    0  0  0  0  0  0  0  0  0  0  0  0
    7.4666   11.8338   25.4136 C    0  0  0  0  0  0  0  0  0  0  0  0
    7.8222   10.5300   24.9630 C    0  0  0  0  0  0  0  0  0  0  0  0
    8.9977   10.3543   24.2283 O    0  0  0  0  0  0  0  0  0  0  0  0
    9.5780    9.0983   23.7861 C    0  0  0  0  0  0  0  0  0  0  0  0
    6.2548   11.9902   26.1322 C    0  0  0  0  0  0  0  0  0  0  0  0
    5.4510   10.8905   26.4451 C    0  0  0  0  0  0  0  0  0  0  0  0
    5.8091    9.6178   26.0044 C    0  0  0  0  0  0  0  0  0  0  0  0
    6.9756    9.4402   25.2535 C    0  0  0  0  0  0  0  0  0  0  0  0
   10.6799   15.2031   17.7127 H    0  0  0  0  0  0  0  0  0  0  0  0
   10.8676   13.9460   18.9269 H    0  0  0  0  0  0  0  0  0  0  0  0
   10.8169   14.2721   21.0102 H    0  0  0  0  0  0  0  0  0  0  0  0
   12.3152   16.2410   21.3015 H    0  0  0  0  0  0  0  0  0  0  0  0
   10.9745   17.2116   21.8995 H    0  0  0  0  0  0  0  0  0  0  0  0
   12.1901   14.6957   23.1493 H    0  0  0  0  0  0  0  0  0  0  0  0
   12.1224   16.3059   23.8413 H    0  0  0  0  0  0  0  0  0  0  0  0
   10.5767   14.6146   24.7699 H    0  0  0  0  0  0  0  0  0  0  0  0
    9.8033   16.1354   24.3808 H    0  0  0  0  0  0  0  0  0  0  0  0
    8.3551   14.5577   21.1368 H    0  0  0  0  0  0  0  0  0  0  0  0
    8.5337   16.1143   21.8941 H    0  0  0  0  0  0  0  0  0  0  0  0
    9.3973   12.6827   25.2268 H    0  0  0  0  0  0  0  0  0  0  0  0
    7.2899   14.6808   25.9207 H    0  0  0  0  0  0  0  0  0  0  0  0
    9.0174   15.7392   28.8654 H    0  0  0  0  0  0  0  0  0  0  0  0
    7.3837   15.3327   28.3352 H    0  0  0  0  0  0  0  0  0  0  0  0
    8.3427   16.5297   27.4374 H    0  0  0  0  0  0  0  0  0  0  0  0
    9.8084    8.4667   24.6474 H    0  0  0  0  0  0  0  0  0  0  0  0
   10.5052    9.3135   23.2544 H    0  0  0  0  0  0  0  0  0  0  0  0
    8.8925    8.5885   23.1069 H    0  0  0  0  0  0  0  0  0  0  0  0
    5.9100   12.9625   26.4697 H    0  0  0  0  0  0  0  0  0  0  0  0
    4.5412   11.0325   27.0238 H    0  0  0  0  0  0  0  0  0  0  0  0
    5.1747    8.7617   26.2311 H    0  0  0  0  0  0  0  0  0  0  0  0
    7.2102    8.4395   24.9086 H    0  0  0  0  0  0  0  0  0  0  0  0
  9 10  1  0  0  0  0
  7  9  1  0  0  0  0
  6  7  1  0  0  0  0
  5  6  1  0  0  0  0
  4  5  1  0  0  0  0
  2  4  1  0  0  0  0
  1  2  2  0  0  0  0
  3  2  1  0  0  0  0
 25  3  1  0  0  0  0
 26  3  1  0  0  0  0
 27  4  1  0  0  0  0
 28  5  1  0  0  0  0
 29  5  1  0  0  0  0
 30  6  1  0  0  0  0
 31  6  1  0  0  0  0
 32  7  1  0  0  0  0
 33  7  1  0  0  0  0
  8  4  1  0  0  0  0
 34  8  1  0  0  0  0
 35  8  1  0  0  0  0
 11 10  2  0  0  0  0
 12 10  1  0  0  0  0
 13 12  1  0  0  0  0
 36 12  1  0  0  0  0
 37 13  1  0  0  0  0
 14 13  1  0  0  0  0
 15 14  2  0  0  0  0
 16 14  1  0  0  0  0
 38 16  1  0  0  0  0
 39 16  1  0  0  0  0
 40 16  1  0  0  0  0
 17 12  1  0  0  0  0
 18 17  1  0  0  0  0
 24 18  2  0  0  0  0
 19 18  1  0  0  0  0
 20 19  1  0  0  0  0
 41 20  1  0  0  0  0
 42 20  1  0  0  0  0
 43 20  1  0  0  0  0
 21 17  2  0  0  0  0
 44 21  1  0  0  0  0
 22 21  1  0  0  0  0
 45 22  1  0  0  0  0
 23 22  2  0  0  0  0
 46 23  1  0  0  0  0
 47 24  1  0  0  0  0
  9  8  1  0  0  0  0
 24 23  1  0  0  0  0
M  END
>  <FittedScore>
-34.97

$$$$
