A71EV2A-x4346a_lowest-energy
  FITTED

 37 39     0  0  0  0  0  0  0999 V2000
    7.5289   13.3553   22.7475 O    0  0  0  0  0  0  0  0  0  0  0  0
    8.3485   13.9126   23.4655 C    0  0  0  0  0  0  0  0  0  0  0  0
    9.1087   14.9684   22.9942 N    0  0  0  0  0  0  0  0  0  0  0  0
    9.9291   15.9228   23.8300 C    0  0  0  0  0  0  0  0  0  0  0  0
   11.3727   16.1688   23.3025 C    0  0  0  0  0  0  0  0  0  0  0  0
   11.3706   16.5834   21.8089 C    0  0  0  0  0  0  0  0  0  0  0  0
    9.1076   15.3983   21.5559 C    0  0  0  0  0  0  0  0  0  0  0  0
   10.5405   15.5681   20.9735 C    0  0  0  0  0  0  0  0  0  0  0  0
   10.5130   15.9458   19.4956 C    0  0  0  0  0  0  0  0  0  0  0  0
    9.9758   16.9449   19.0603 O    0  0  0  0  0  0  0  0  0  0  0  0
   10.9297   14.9903   18.6478 N    0  0  0  0  0  0  0  0  0  0  0  0
    8.5404   13.4554   24.9244 C    0  0  0  0  0  0  0  0  0  0  0  0
    7.9224   12.0953   25.1962 C    0  0  0  0  0  0  0  0  0  0  0  0
    8.5053   10.8857   24.5301 C    0  0  0  0  0  0  0  0  0  0  0  0
    9.6414   10.7564   23.6242 N    0  0  0  0  0  0  0  0  0  0  0  0
    9.7092    9.3744   23.2768 O    0  0  0  0  0  0  0  0  0  0  0  0
    8.6694    8.6674   23.9574 N    0  0  0  0  0  0  0  0  0  0  0  0
    7.9308    9.6690   24.7149 C    0  0  0  0  0  0  0  0  0  0  0  0
    6.7265    9.5491   25.5937 C    0  0  0  0  0  0  0  0  0  0  0  0
    6.2834   10.6770   26.1738 C    0  0  0  0  0  0  0  0  0  0  0  0
    6.8510   11.8862   25.9867 C    0  0  0  0  0  0  0  0  0  0  0  0
    9.4019   16.8818   23.8730 H    0  0  0  0  0  0  0  0  0  0  0  0
   10.0250   15.6219   24.8731 H    0  0  0  0  0  0  0  0  0  0  0  0
   11.8507   16.9546   23.8920 H    0  0  0  0  0  0  0  0  0  0  0  0
   11.9731   15.2632   23.4345 H    0  0  0  0  0  0  0  0  0  0  0  0
   10.9530   17.5909   21.7058 H    0  0  0  0  0  0  0  0  0  0  0  0
   12.3972   16.6252   21.4335 H    0  0  0  0  0  0  0  0  0  0  0  0
    8.5534   16.3393   21.4678 H    0  0  0  0  0  0  0  0  0  0  0  0
    8.5829   14.6888   20.9117 H    0  0  0  0  0  0  0  0  0  0  0  0
   11.0360   14.5926   21.0788 H    0  0  0  0  0  0  0  0  0  0  0  0
   11.1827   14.0654   18.9828 H    0  0  0  0  0  0  0  0  0  0  0  0
   10.8529   15.1393   17.6508 H    0  0  0  0  0  0  0  0  0  0  0  0
    8.1225   14.2100   25.5967 H    0  0  0  0  0  0  0  0  0  0  0  0
    9.6058   13.3671   25.1545 H    0  0  0  0  0  0  0  0  0  0  0  0
    6.2207    8.6045   25.7845 H    0  0  0  0  0  0  0  0  0  0  0  0
    5.4170   10.6149   26.8296 H    0  0  0  0  0  0  0  0  0  0  0  0
    6.4046   12.7370   26.4980 H    0  0  0  0  0  0  0  0  0  0  0  0
  2  1  2  0  0  0  0
  3  2  1  0  0  0  0
  4  3  1  0  0  0  0
 22  4  1  0  0  0  0
 23  4  1  0  0  0  0
  5  4  1  0  0  0  0
 24  5  1  0  0  0  0
 25  5  1  0  0  0  0
  6  5  1  0  0  0  0
 26  6  1  0  0  0  0
 27  6  1  0  0  0  0
  7  3  1  0  0  0  0
 28  7  1  0  0  0  0
 29  7  1  0  0  0  0
  8  6  1  0  0  0  0
  9  8  1  0  0  0  0
 30  8  1  0  0  0  0
 10  9  2  0  0  0  0
 11  9  1  0  0  0  0
 31 11  1  0  0  0  0
 32 11  1  0  0  0  0
 12  2  1  0  0  0  0
 33 12  1  0  0  0  0
 34 12  1  0  0  0  0
 13 12  1  0  0  0  0
 21 13  2  0  0  0  0
 14 13  1  0  0  0  0
 15 14  2  0  0  0  0
 16 15  1  0  0  0  0
 17 16  1  0  0  0  0
 18 17  2  0  0  0  0
 19 18  1  0  0  0  0
 35 19  1  0  0  0  0
 20 19  2  0  0  0  0
 36 20  1  0  0  0  0
 37 21  1  0  0  0  0
  8  7  1  0  0  0  0
 18 14  1  0  0  0  0
 21 20  1  0  0  0  0
M  END
>  <FittedScore>
-27.72

$$$$
