A71EV2A-x4346a_best-RMSD
  FITTED

 37 39     0  0  0  0  0  0  0999 V2000
    7.6034   13.3665   22.8818 O    0  0  0  0  0  0  0  0  0  0  0  0
    8.3610   13.9682   23.6290 C    0  0  0  0  0  0  0  0  0  0  0  0
    9.0688   15.0710   23.1841 N    0  0  0  0  0  0  0  0  0  0  0  0
   10.1209   15.8374   23.9440 C    0  0  0  0  0  0  0  0  0  0  0  0
   11.5224   15.7703   23.2713 C    0  0  0  0  0  0  0  0  0  0  0  0
   11.4743   16.1599   21.7660 C    0  0  0  0  0  0  0  0  0  0  0  0
    8.9671   15.6054   21.7857 C    0  0  0  0  0  0  0  0  0  0  0  0
   10.3145   15.4301   21.0229 C    0  0  0  0  0  0  0  0  0  0  0  0
   10.2565   15.8309   19.5476 C    0  0  0  0  0  0  0  0  0  0  0  0
    9.6457   16.7812   19.1016 O    0  0  0  0  0  0  0  0  0  0  0  0
   10.8379   14.9616   18.7062 N    0  0  0  0  0  0  0  0  0  0  0  0
    8.5974   13.4561   25.0660 C    0  0  0  0  0  0  0  0  0  0  0  0
    7.9235   12.1174   25.3213 C    0  0  0  0  0  0  0  0  0  0  0  0
    8.5185   10.8770   24.7297 C    0  0  0  0  0  0  0  0  0  0  0  0
    9.7306   10.6871   23.9487 N    0  0  0  0  0  0  0  0  0  0  0  0
    9.8049    9.2883   23.6769 O    0  0  0  0  0  0  0  0  0  0  0  0
    8.6602    8.6367   24.2250 N    0  0  0  0  0  0  0  0  0  0  0  0
    7.8917    9.6819   24.8858 C    0  0  0  0  0  0  0  0  0  0  0  0
    6.6290    9.6077   25.6797 C    0  0  0  0  0  0  0  0  0  0  0  0
    6.1757   10.7633   26.2005 C    0  0  0  0  0  0  0  0  0  0  0  0
    6.7858   11.9535   26.0259 C    0  0  0  0  0  0  0  0  0  0  0  0
    9.8054   16.8819   24.0257 H    0  0  0  0  0  0  0  0  0  0  0  0
   10.2376   15.5144   24.9779 H    0  0  0  0  0  0  0  0  0  0  0  0
   12.2034   16.4436   23.7970 H    0  0  0  0  0  0  0  0  0  0  0  0
   11.9316   14.7610   23.3744 H    0  0  0  0  0  0  0  0  0  0  0  0
   11.3567   17.2435   21.6725 H    0  0  0  0  0  0  0  0  0  0  0  0
   12.4319   15.9057   21.3001 H    0  0  0  0  0  0  0  0  0  0  0  0
    8.6904   16.6617   21.8264 H    0  0  0  0  0  0  0  0  0  0  0  0
    8.1655   15.1369   21.2083 H    0  0  0  0  0  0  0  0  0  0  0  0
   10.5353   14.3570   21.0757 H    0  0  0  0  0  0  0  0  0  0  0  0
   10.7665   15.1166   17.7098 H    0  0  0  0  0  0  0  0  0  0  0  0
   11.1639   14.0590   19.0565 H    0  0  0  0  0  0  0  0  0  0  0  0
    8.2473   14.2021   25.7908 H    0  0  0  0  0  0  0  0  0  0  0  0
    9.6675   13.3167   25.2444 H    0  0  0  0  0  0  0  0  0  0  0  0
    6.0822    8.6834   25.8506 H    0  0  0  0  0  0  0  0  0  0  0  0
    5.2594   10.7420   26.7879 H    0  0  0  0  0  0  0  0  0  0  0  0
    6.3238   12.8322   26.4705 H    0  0  0  0  0  0  0  0  0  0  0  0
  2  1  2  0  0  0  0
  3  2  1  0  0  0  0
  4  3  1  0  0  0  0
 22  4  1  0  0  0  0
 23  4  1  0  0  0  0
  5  4  1  0  0  0  0
 24  5  1  0  0  0  0
 25  5  1  0  0  0  0
  6  5  1  0  0  0  0
 26  6  1  0  0  0  0
 27  6  1  0  0  0  0
  7  3  1  0  0  0  0
 28  7  1  0  0  0  0
 29  7  1  0  0  0  0
  8  6  1  0  0  0  0
  9  8  1  0  0  0  0
 30  8  1  0  0  0  0
 10  9  2  0  0  0  0
 11  9  1  0  0  0  0
 31 11  1  0  0  0  0
 32 11  1  0  0  0  0
 12  2  1  0  0  0  0
 33 12  1  0  0  0  0
 34 12  1  0  0  0  0
 13 12  1  0  0  0  0
 21 13  2  0  0  0  0
 14 13  1  0  0  0  0
 15 14  2  0  0  0  0
 16 15  1  0  0  0  0
 17 16  1  0  0  0  0
 18 17  2  0  0  0  0
 19 18  1  0  0  0  0
 35 19  1  0  0  0  0
 20 19  2  0  0  0  0
 36 20  1  0  0  0  0
 37 21  1  0  0  0  0
  8  7  1  0  0  0  0
 18 14  1  0  0  0  0
 21 20  1  0  0  0  0
M  END
>  <FittedScore>
-27.82

$$$$
