A71EV2A-x7070a_lowest-energy
  FITTED

 48 51     0  0  0  0  0  0  0999 V2000
    9.2988    9.0353   23.5820 C    0  0  0  0  0  0  0  0  0  0  0  0
    8.6326   10.7021   23.4670 S    0  0  0  0  0  0  0  0  0  0  0  0
    7.3857   10.7386   24.7095 C    0  0  0  0  0  0  0  0  0  0  0  0
    6.8219    9.5785   25.2777 C    0  0  0  0  0  0  0  0  0  0  0  0
    5.7340    9.6814   26.1423 C    0  0  0  0  0  0  0  0  0  0  0  0
    5.0811   10.9086   26.3687 C    0  0  0  0  0  0  0  0  0  0  0  0
    3.7588   11.1203   27.0546 C    0  0  0  0  0  0  0  0  0  0  0  0
    3.1162   12.4174   27.1909 C    0  0  0  0  0  0  0  0  0  0  0  0
    1.8395   12.5006   27.7499 C    0  0  0  0  0  0  0  0  0  0  0  0
    1.2477   11.3916   28.3487 C    0  0  0  0  0  0  0  0  0  0  0  0
    1.8181   10.1593   28.1934 N    0  0  0  0  0  0  0  0  0  0  0  0
    3.0228   10.0163   27.5695 C    0  0  0  0  0  0  0  0  0  0  0  0
    5.7621   12.0647   25.8765 C    0  0  0  0  0  0  0  0  0  0  0  0
    6.9313   11.9772   25.0949 C    0  0  0  0  0  0  0  0  0  0  0  0
    7.5704   13.1543   24.7393 O    0  0  0  0  0  0  0  0  0  0  0  0
    7.5990   13.6611   23.4667 C    0  0  0  0  0  0  0  0  0  0  0  0
    6.8091   13.3443   22.6153 O    0  0  0  0  0  0  0  0  0  0  0  0
    8.7319   14.3466   23.1797 N    0  0  0  0  0  0  0  0  0  0  0  0
    9.1739   14.8638   21.8731 C    0  0  0  0  0  0  0  0  0  0  0  0
   10.7190   14.9109   21.7517 C    0  0  0  0  0  0  0  0  0  0  0  0
   11.1016   15.7107   20.5128 C    0  0  0  0  0  0  0  0  0  0  0  0
   11.4720   15.0015   19.4455 N    0  0  0  0  0  0  0  0  0  0  0  0
   11.1006   16.9224   20.4774 O    0  0  0  0  0  0  0  0  0  0  0  0
   11.4351   15.5554   23.0025 C    0  0  0  0  0  0  0  0  0  0  0  0
   10.9969   15.0264   24.3746 C    0  0  0  0  0  0  0  0  0  0  0  0
   10.4657   13.7061   24.9024 C    0  0  0  0  0  0  0  0  0  0  0  0
    9.5428   14.7452   24.3672 C    0  0  0  0  0  0  0  0  0  0  0  0
   10.1744    8.9333   22.9487 H    0  0  0  0  0  0  0  0  0  0  0  0
    8.5240    8.3297   23.2503 H    0  0  0  0  0  0  0  0  0  0  0  0
    9.5929    8.8375   24.6087 H    0  0  0  0  0  0  0  0  0  0  0  0
    7.2359    8.6170   25.0297 H    0  0  0  0  0  0  0  0  0  0  0  0
    5.4314    8.7271   26.6330 H    0  0  0  0  0  0  0  0  0  0  0  0
    3.5972   13.3674   26.9457 H    0  0  0  0  0  0  0  0  0  0  0  0
    1.3252   13.4632   27.7531 H    0  0  0  0  0  0  0  0  0  0  0  0
    0.3358   11.4531   28.9791 H    0  0  0  0  0  0  0  0  0  0  0  0
    3.4186    8.9910   27.5215 H    0  0  0  0  0  0  0  0  0  0  0  0
    5.4207   13.0541   26.1226 H    0  0  0  0  0  0  0  0  0  0  0  0
    8.7778   15.8724   21.7884 H    0  0  0  0  0  0  0  0  0  0  0  0
    8.7293   14.3054   21.0283 H    0  0  0  0  0  0  0  0  0  0  0  0
   11.0346   13.8536   21.6348 H    0  0  0  0  0  0  0  0  0  0  0  0
   11.5013   13.9683   19.4988 H    0  0  0  0  0  0  0  0  0  0  0  0
   11.7488   15.4885   18.6201 H    0  0  0  0  0  0  0  0  0  0  0  0
   11.1805   16.6193   23.0293 H    0  0  0  0  0  0  0  0  0  0  0  0
   12.5193   15.5175   22.8764 H    0  0  0  0  0  0  0  0  0  0  0  0
   11.4024   15.6546   25.1635 H    0  0  0  0  0  0  0  0  0  0  0  0
   10.4825   13.5292   25.9692 H    0  0  0  0  0  0  0  0  0  0  0  0
   10.7110   12.8675   24.3117 H    0  0  0  0  0  0  0  0  0  0  0  0
    8.8436   15.3671   24.8965 H    0  0  0  0  0  0  0  0  0  0  0  0
 14 15  1  0  0  0  0
 13 14  2  0  0  0  0
  6 13  1  0  0  0  0
  5  6  2  0  0  0  0
  4  5  1  0  0  0  0
  3  4  2  0  0  0  0
  2  3  1  0  0  0  0
  1  2  1  0  0  0  0
 28  1  1  0  0  0  0
 29  1  1  0  0  0  0
 30  1  1  0  0  0  0
 31  4  1  0  0  0  0
 32  5  1  0  0  0  0
  7  6  1  0  0  0  0
  8  7  2  0  0  0  0
  9  8  1  0  0  0  0
 33  8  1  0  0  0  0
 10  9  2  0  0  0  0
 34  9  1  0  0  0  0
 11 10  1  0  0  0  0
 35 10  1  0  0  0  0
 12 11  2  0  0  0  0
 36 12  1  0  0  0  0
 37 13  1  0  0  0  0
 16 15  1  0  0  0  0
 17 16  2  0  0  0  0
 18 16  1  0  0  0  0
 19 18  1  0  0  0  0
 20 19  1  0  0  0  0
 38 19  1  0  0  0  0
 39 19  1  0  0  0  0
 21 20  1  0  0  0  0
 24 20  1  0  0  0  0
 40 20  1  0  0  0  0
 22 21  1  0  0  0  0
 23 21  2  0  0  0  0
 41 22  1  0  0  0  0
 42 22  1  0  0  0  0
 43 24  1  0  0  0  0
 44 24  1  0  0  0  0
 25 24  1  0  0  0  0
 26 25  1  0  0  0  0
 45 25  1  0  0  0  0
 46 26  1  0  0  0  0
 47 26  1  0  0  0  0
 27 26  1  0  0  0  0
 48 27  1  0  0  0  0
 12  7  1  0  0  0  0
 14  3  1  0  0  0  0
 27 18  1  0  0  0  0
 27 25  1  0  0  0  0
M  END
>  <FittedScore>
-25.96

$$$$
