A71EV2A-x5262b_lowest-energy
  FITTED

 41 43     0  0  0  0  0  0  0999 V2000
    9.6110   16.9910   19.2099 O    0  0  0  0  0  0  0  0  0  0  0  0
    9.7224   15.8494   19.5997 C    0  0  0  0  0  0  0  0  0  0  0  0
   10.1481   14.8779   18.7707 N    0  0  0  0  0  0  0  0  0  0  0  0
    9.3316   15.4187   21.0010 C    0  0  0  0  0  0  0  0  0  0  0  0
   10.4743   15.4327   22.0561 C    0  0  0  0  0  0  0  0  0  0  0  0
   11.2156   16.7937   22.3087 C    0  0  0  0  0  0  0  0  0  0  0  0
   11.8918   14.9716   21.5412 C    0  0  0  0  0  0  0  0  0  0  0  0
   12.2588   15.7579   22.8281 C    0  0  0  0  0  0  0  0  0  0  0  0
   11.6257   15.0005   23.9783 C    0  0  0  0  0  0  0  0  0  0  0  0
   10.2775   14.8221   23.4158 N    0  0  0  0  0  0  0  0  0  0  0  0
    9.1275   14.4916   24.0788 C    0  0  0  0  0  0  0  0  0  0  0  0
    8.0356   14.7060   23.6003 O    0  0  0  0  0  0  0  0  0  0  0  0
    9.2127   13.8475   25.4689 C    0  0  0  0  0  0  0  0  0  0  0  0
    8.1602   12.7430   25.7041 C    0  0  0  0  0  0  0  0  0  0  0  0
    8.1863   11.5027   25.0116 C    0  0  0  0  0  0  0  0  0  0  0  0
    9.3323   11.1972   23.6753 S    0  0  0  0  0  0  0  0  0  0  0  0
    9.9921    9.5316   24.0017 C    0  0  0  0  0  0  0  0  0  0  0  0
    7.1377   12.9682   26.6502 C    0  0  0  0  0  0  0  0  0  0  0  0
    6.2027   11.9682   26.9537 C    0  0  0  0  0  0  0  0  0  0  0  0
    6.2700   10.7275   26.3128 C    0  0  0  0  0  0  0  0  0  0  0  0
    7.2492   10.5033   25.3393 C    0  0  0  0  0  0  0  0  0  0  0  0
   10.2367   13.9253   19.1140 H    0  0  0  0  0  0  0  0  0  0  0  0
   10.4928   15.1005   17.8432 H    0  0  0  0  0  0  0  0  0  0  0  0
    8.5380   16.0904   21.3384 H    0  0  0  0  0  0  0  0  0  0  0  0
    8.8822   14.4208   20.9775 H    0  0  0  0  0  0  0  0  0  0  0  0
   11.4967   17.4212   21.4489 H    0  0  0  0  0  0  0  0  0  0  0  0
   10.7628   17.4587   23.0562 H    0  0  0  0  0  0  0  0  0  0  0  0
   12.3011   15.3702   20.6004 H    0  0  0  0  0  0  0  0  0  0  0  0
   12.0872   13.8916   21.5414 H    0  0  0  0  0  0  0  0  0  0  0  0
   13.2977   16.0706   22.9788 H    0  0  0  0  0  0  0  0  0  0  0  0
   12.1296   14.0456   24.1611 H    0  0  0  0  0  0  0  0  0  0  0  0
   11.6159   15.5963   24.8947 H    0  0  0  0  0  0  0  0  0  0  0  0
   10.1894   13.3953   25.6611 H    0  0  0  0  0  0  0  0  0  0  0  0
    9.1170   14.6462   26.2083 H    0  0  0  0  0  0  0  0  0  0  0  0
   10.2634    9.4362   25.0541 H    0  0  0  0  0  0  0  0  0  0  0  0
   10.8834    9.3908   23.3907 H    0  0  0  0  0  0  0  0  0  0  0  0
    9.2566    8.7693   23.7425 H    0  0  0  0  0  0  0  0  0  0  0  0
    7.0644   13.9228   27.1657 H    0  0  0  0  0  0  0  0  0  0  0  0
    5.4254   12.1565   27.6893 H    0  0  0  0  0  0  0  0  0  0  0  0
    5.5546    9.9445   26.5546 H    0  0  0  0  0  0  0  0  0  0  0  0
    7.2523    9.5477   24.8196 H    0  0  0  0  0  0  0  0  0  0  0  0
 10 11  1  0  0  0  0
  9 10  1  0  0  0  0
  8  9  1  0  0  0  0
  6  8  1  0  0  0  0
  5  6  1  0  0  0  0
  4  5  1  0  0  0  0
  2  4  1  0  0  0  0
  1  2  2  0  0  0  0
  3  2  1  0  0  0  0
 22  3  1  0  0  0  0
 23  3  1  0  0  0  0
 24  4  1  0  0  0  0
 25  4  1  0  0  0  0
 26  6  1  0  0  0  0
 27  6  1  0  0  0  0
  7  5  1  0  0  0  0
 28  7  1  0  0  0  0
 29  7  1  0  0  0  0
 30  8  1  0  0  0  0
 31  9  1  0  0  0  0
 32  9  1  0  0  0  0
 12 11  2  0  0  0  0
 13 11  1  0  0  0  0
 33 13  1  0  0  0  0
 34 13  1  0  0  0  0
 14 13  1  0  0  0  0
 15 14  1  0  0  0  0
 21 15  2  0  0  0  0
 16 15  1  0  0  0  0
 17 16  1  0  0  0  0
 35 17  1  0  0  0  0
 36 17  1  0  0  0  0
 37 17  1  0  0  0  0
 18 14  2  0  0  0  0
 38 18  1  0  0  0  0
 19 18  1  0  0  0  0
 39 19  1  0  0  0  0
 20 19  2  0  0  0  0
 40 20  1  0  0  0  0
 41 21  1  0  0  0  0
  8  7  1  0  0  0  0
 10  5  1  0  0  0  0
 21 20  1  0  0  0  0
M  END
>  <FittedScore>
-27.10

$$$$
