A71EV2A-x7560b_lowest-energy
  FITTED

 56 58     0  0  0  0  0  0  0999 V2000
    9.5323    8.6751   23.3925 C    0  0  0  0  0  0  0  0  0  0  0  0
    9.3769   10.4330   23.8141 S    0  0  0  0  0  0  0  0  0  0  0  0
    7.9744   10.5774   24.9067 C    0  0  0  0  0  0  0  0  0  0  0  0
    7.3270    9.4306   25.2590 N    0  0  0  0  0  0  0  0  0  0  0  0
    6.2364    9.5352   26.0539 C    0  0  0  0  0  0  0  0  0  0  0  0
    5.7241   10.7105   26.4936 N    0  0  0  0  0  0  0  0  0  0  0  0
    6.3609   11.8652   26.1719 C    0  0  0  0  0  0  0  0  0  0  0  0
    5.7869   13.0177   26.6694 N    0  0  0  0  0  0  0  0  0  0  0  0
    4.8829   13.8407   25.8396 C    0  0  0  0  0  0  0  0  0  0  0  0
    3.3923   13.4062   25.9658 C    0  0  0  0  0  0  0  0  0  0  0  0
    2.8870   12.9239   27.3649 C    0  0  0  0  0  0  0  0  0  0  0  0
    3.4967   13.6576   28.5994 C    0  0  0  0  0  0  0  0  0  0  0  0
    4.8980   13.1252   29.0260 C    0  0  0  0  0  0  0  0  0  0  0  0
    6.0590   13.4718   28.0527 C    0  0  0  0  0  0  0  0  0  0  0  0
    7.5352   11.8465   25.3736 C    0  0  0  0  0  0  0  0  0  0  0  0
    8.2957   13.1363   25.0215 C    0  0  0  0  0  0  0  0  0  0  0  0
    8.0584   13.6612   23.6001 C    0  0  0  0  0  0  0  0  0  0  0  0
    7.3428   13.0350   22.8291 O    0  0  0  0  0  0  0  0  0  0  0  0
    8.7535   14.7820   23.1907 N    0  0  0  0  0  0  0  0  0  0  0  0
    9.6527   15.6459   24.0399 C    0  0  0  0  0  0  0  0  0  0  0  0
   11.1149   15.7201   23.5158 C    0  0  0  0  0  0  0  0  0  0  0  0
   11.1644   16.1796   22.0388 C    0  0  0  0  0  0  0  0  0  0  0  0
   10.2181   15.2865   21.1858 C    0  0  0  0  0  0  0  0  0  0  0  0
   10.2291   15.7320   19.7354 C    0  0  0  0  0  0  0  0  0  0  0  0
   10.6824   14.8264   18.8462 N    0  0  0  0  0  0  0  0  0  0  0  0
    9.7753   16.7966   19.3667 O    0  0  0  0  0  0  0  0  0  0  0  0
    8.7707   15.2631   21.7733 C    0  0  0  0  0  0  0  0  0  0  0  0
   10.3590    8.5441   22.6924 H    0  0  0  0  0  0  0  0  0  0  0  0
    8.6142    8.3186   22.9188 H    0  0  0  0  0  0  0  0  0  0  0  0
    9.7331    8.0941   24.2939 H    0  0  0  0  0  0  0  0  0  0  0  0
    5.7294    8.6181   26.3442 H    0  0  0  0  0  0  0  0  0  0  0  0
    5.1694   13.7834   24.7848 H    0  0  0  0  0  0  0  0  0  0  0  0
    4.9671   14.9031   26.0881 H    0  0  0  0  0  0  0  0  0  0  0  0
    3.2162   12.6001   25.2469 H    0  0  0  0  0  0  0  0  0  0  0  0
    2.7707   14.2419   25.6337 H    0  0  0  0  0  0  0  0  0  0  0  0
    3.0476   11.8456   27.4562 H    0  0  0  0  0  0  0  0  0  0  0  0
    1.8017   13.0508   27.3960 H    0  0  0  0  0  0  0  0  0  0  0  0
    2.8149   13.5239   29.4444 H    0  0  0  0  0  0  0  0  0  0  0  0
    3.5404   14.7356   28.4210 H    0  0  0  0  0  0  0  0  0  0  0  0
    4.8511   12.0425   29.1751 H    0  0  0  0  0  0  0  0  0  0  0  0
    5.1400   13.5432   30.0073 H    0  0  0  0  0  0  0  0  0  0  0  0
    6.9742   13.0137   28.4379 H    0  0  0  0  0  0  0  0  0  0  0  0
    6.2504   14.5482   28.0859 H    0  0  0  0  0  0  0  0  0  0  0  0
    9.3644   12.9587   25.1690 H    0  0  0  0  0  0  0  0  0  0  0  0
    8.0542   13.9247   25.7361 H    0  0  0  0  0  0  0  0  0  0  0  0
    9.7131   15.3359   25.0808 H    0  0  0  0  0  0  0  0  0  0  0  0
    9.2328   16.6558   24.0804 H    0  0  0  0  0  0  0  0  0  0  0  0
   11.5954   14.7418   23.6098 H    0  0  0  0  0  0  0  0  0  0  0  0
   11.6887   16.4171   24.1325 H    0  0  0  0  0  0  0  0  0  0  0  0
   12.1884   16.1092   21.6603 H    0  0  0  0  0  0  0  0  0  0  0  0
   10.8736   17.2346   21.9726 H    0  0  0  0  0  0  0  0  0  0  0  0
   10.6051   14.2604   21.2554 H    0  0  0  0  0  0  0  0  0  0  0  0
   10.8551   13.8729   19.1568 H    0  0  0  0  0  0  0  0  0  0  0  0
   10.7514   15.0669   17.8646 H    0  0  0  0  0  0  0  0  0  0  0  0
    8.1477   14.6519   21.1163 H    0  0  0  0  0  0  0  0  0  0  0  0
    8.3191   16.2610   21.7367 H    0  0  0  0  0  0  0  0  0  0  0  0
 16 17  1  0  0  0  0
 15 16  1  0  0  0  0
  7 15  2  0  0  0  0
  6  7  1  0  0  0  0
  5  6  2  0  0  0  0
  4  5  1  0  0  0  0
  3  4  2  0  0  0  0
  2  3  1  0  0  0  0
  1  2  1  0  0  0  0
 28  1  1  0  0  0  0
 29  1  1  0  0  0  0
 30  1  1  0  0  0  0
 31  5  1  0  0  0  0
  8  7  1  0  0  0  0
  9  8  1  0  0  0  0
 10  9  1  0  0  0  0
 32  9  1  0  0  0  0
 33  9  1  0  0  0  0
 11 10  1  0  0  0  0
 34 10  1  0  0  0  0
 35 10  1  0  0  0  0
 12 11  1  0  0  0  0
 36 11  1  0  0  0  0
 37 11  1  0  0  0  0
 13 12  1  0  0  0  0
 38 12  1  0  0  0  0
 39 12  1  0  0  0  0
 14 13  1  0  0  0  0
 40 13  1  0  0  0  0
 41 13  1  0  0  0  0
 42 14  1  0  0  0  0
 43 14  1  0  0  0  0
 44 16  1  0  0  0  0
 45 16  1  0  0  0  0
 18 17  2  0  0  0  0
 19 17  1  0  0  0  0
 20 19  1  0  0  0  0
 21 20  1  0  0  0  0
 46 20  1  0  0  0  0
 47 20  1  0  0  0  0
 22 21  1  0  0  0  0
 48 21  1  0  0  0  0
 49 21  1  0  0  0  0
 23 22  1  0  0  0  0
 50 22  1  0  0  0  0
 51 22  1  0  0  0  0
 24 23  1  0  0  0  0
 27 23  1  0  0  0  0
 52 23  1  0  0  0  0
 25 24  1  0  0  0  0
 26 24  2  0  0  0  0
 53 25  1  0  0  0  0
 54 25  1  0  0  0  0
 55 27  1  0  0  0  0
 56 27  1  0  0  0  0
 14  8  1  0  0  0  0
 15  3  1  0  0  0  0
 27 19  1  0  0  0  0
M  END
>  <FittedScore>
-35.10

$$$$
