A71EV2A-x7560b_best-RMSD
  FITTED

 56 58     0  0  0  0  0  0  0999 V2000
    9.4814    8.6601   23.3266 C    0  0  0  0  0  0  0  0  0  0  0  0
    9.4435   10.3832   23.8897 S    0  0  0  0  0  0  0  0  0  0  0  0
    8.0021   10.5617   24.9230 C    0  0  0  0  0  0  0  0  0  0  0  0
    7.3388    9.4241   25.2681 N    0  0  0  0  0  0  0  0  0  0  0  0
    6.2339    9.5381   26.0352 C    0  0  0  0  0  0  0  0  0  0  0  0
    5.7202   10.7190   26.4621 N    0  0  0  0  0  0  0  0  0  0  0  0
    6.3532   11.8749   26.1303 C    0  0  0  0  0  0  0  0  0  0  0  0
    5.7361   13.0412   26.5696 N    0  0  0  0  0  0  0  0  0  0  0  0
    5.2193   14.0449   25.5976 C    0  0  0  0  0  0  0  0  0  0  0  0
    3.8164   14.6413   25.9008 C    0  0  0  0  0  0  0  0  0  0  0  0
    2.8146   13.6834   26.6103 C    0  0  0  0  0  0  0  0  0  0  0  0
    3.0149   13.6487   28.1547 C    0  0  0  0  0  0  0  0  0  0  0  0
    4.2856   12.8983   28.6425 C    0  0  0  0  0  0  0  0  0  0  0  0
    5.6440   13.3438   28.0204 C    0  0  0  0  0  0  0  0  0  0  0  0
    7.5536   11.8394   25.3592 C    0  0  0  0  0  0  0  0  0  0  0  0
    8.3465   13.1150   25.0007 C    0  0  0  0  0  0  0  0  0  0  0  0
    8.1068   13.6458   23.5754 C    0  0  0  0  0  0  0  0  0  0  0  0
    7.3747   13.0279   22.8154 O    0  0  0  0  0  0  0  0  0  0  0  0
    8.8014   14.7572   23.1486 N    0  0  0  0  0  0  0  0  0  0  0  0
    9.6622   15.6570   23.9969 C    0  0  0  0  0  0  0  0  0  0  0  0
   11.1357   15.7007   23.5136 C    0  0  0  0  0  0  0  0  0  0  0  0
   11.2308   16.1361   22.0299 C    0  0  0  0  0  0  0  0  0  0  0  0
   10.2939   15.2575   21.1514 C    0  0  0  0  0  0  0  0  0  0  0  0
   10.3236   15.7147   19.6988 C    0  0  0  0  0  0  0  0  0  0  0  0
   10.7996   14.8240   18.8086 N    0  0  0  0  0  0  0  0  0  0  0  0
    9.8616   16.7737   19.3279 O    0  0  0  0  0  0  0  0  0  0  0  0
    8.8404   15.2043   21.7184 C    0  0  0  0  0  0  0  0  0  0  0  0
    9.5138    7.9839   24.1819 H    0  0  0  0  0  0  0  0  0  0  0  0
   10.3691    8.4930   22.7119 H    0  0  0  0  0  0  0  0  0  0  0  0
    8.5944    8.4508   22.7242 H    0  0  0  0  0  0  0  0  0  0  0  0
    5.7050    8.6242   26.3003 H    0  0  0  0  0  0  0  0  0  0  0  0
    5.1824   13.6213   24.5903 H    0  0  0  0  0  0  0  0  0  0  0  0
    5.9196   14.8816   25.5286 H    0  0  0  0  0  0  0  0  0  0  0  0
    3.3711   14.9701   24.9578 H    0  0  0  0  0  0  0  0  0  0  0  0
    3.9387   15.5561   26.4889 H    0  0  0  0  0  0  0  0  0  0  0  0
    2.8765   12.6753   26.1904 H    0  0  0  0  0  0  0  0  0  0  0  0
    1.7994   14.0346   26.4067 H    0  0  0  0  0  0  0  0  0  0  0  0
    2.1405   13.1613   28.5971 H    0  0  0  0  0  0  0  0  0  0  0  0
    3.0204   14.6649   28.5594 H    0  0  0  0  0  0  0  0  0  0  0  0
    4.1326   11.8257   28.5022 H    0  0  0  0  0  0  0  0  0  0  0  0
    4.3531   13.0287   29.7252 H    0  0  0  0  0  0  0  0  0  0  0  0
    6.4492   12.8414   28.5666 H    0  0  0  0  0  0  0  0  0  0  0  0
    5.7957   14.4095   28.2152 H    0  0  0  0  0  0  0  0  0  0  0  0
    9.4166   12.9309   25.1361 H    0  0  0  0  0  0  0  0  0  0  0  0
    8.1232   13.8957   25.7284 H    0  0  0  0  0  0  0  0  0  0  0  0
    9.6703   15.3957   25.0538 H    0  0  0  0  0  0  0  0  0  0  0  0
    9.2439   16.6680   23.9703 H    0  0  0  0  0  0  0  0  0  0  0  0
   11.5935   14.7134   23.6467 H    0  0  0  0  0  0  0  0  0  0  0  0
   11.7020   16.4011   24.1338 H    0  0  0  0  0  0  0  0  0  0  0  0
   12.2628   16.0359   21.6899 H    0  0  0  0  0  0  0  0  0  0  0  0
   10.9631   17.1945   21.9397 H    0  0  0  0  0  0  0  0  0  0  0  0
   10.6906   14.2351   21.1998 H    0  0  0  0  0  0  0  0  0  0  0  0
   10.9976   13.8665   19.1110 H    0  0  0  0  0  0  0  0  0  0  0  0
   10.8233   15.0706   17.8229 H    0  0  0  0  0  0  0  0  0  0  0  0
    8.2572   14.5552   21.0587 H    0  0  0  0  0  0  0  0  0  0  0  0
    8.3631   16.1858   21.6419 H    0  0  0  0  0  0  0  0  0  0  0  0
 16 17  1  0  0  0  0
 15 16  1  0  0  0  0
  7 15  2  0  0  0  0
  6  7  1  0  0  0  0
  5  6  2  0  0  0  0
  4  5  1  0  0  0  0
  3  4  2  0  0  0  0
  2  3  1  0  0  0  0
  1  2  1  0  0  0  0
 28  1  1  0  0  0  0
 29  1  1  0  0  0  0
 30  1  1  0  0  0  0
 31  5  1  0  0  0  0
  8  7  1  0  0  0  0
  9  8  1  0  0  0  0
 10  9  1  0  0  0  0
 32  9  1  0  0  0  0
 33  9  1  0  0  0  0
 11 10  1  0  0  0  0
 34 10  1  0  0  0  0
 35 10  1  0  0  0  0
 12 11  1  0  0  0  0
 36 11  1  0  0  0  0
 37 11  1  0  0  0  0
 13 12  1  0  0  0  0
 38 12  1  0  0  0  0
 39 12  1  0  0  0  0
 14 13  1  0  0  0  0
 40 13  1  0  0  0  0
 41 13  1  0  0  0  0
 42 14  1  0  0  0  0
 43 14  1  0  0  0  0
 44 16  1  0  0  0  0
 45 16  1  0  0  0  0
 18 17  2  0  0  0  0
 19 17  1  0  0  0  0
 20 19  1  0  0  0  0
 21 20  1  0  0  0  0
 46 20  1  0  0  0  0
 47 20  1  0  0  0  0
 22 21  1  0  0  0  0
 48 21  1  0  0  0  0
 49 21  1  0  0  0  0
 23 22  1  0  0  0  0
 50 22  1  0  0  0  0
 51 22  1  0  0  0  0
 24 23  1  0  0  0  0
 27 23  1  0  0  0  0
 52 23  1  0  0  0  0
 25 24  1  0  0  0  0
 26 24  2  0  0  0  0
 53 25  1  0  0  0  0
 54 25  1  0  0  0  0
 55 27  1  0  0  0  0
 56 27  1  0  0  0  0
 14  8  1  0  0  0  0
 15  3  1  0  0  0  0
 27 19  1  0  0  0  0
M  END
>  <FittedScore>
-34.41

$$$$
