A71EV2A-x1346a_lowest-energy
  FITTED

 54 56     0  0  0  0  0  0  0999 V2000
    8.6481   17.5987   18.7054 CL   0  0  0  0  0  0  0  0  0  0  0  0
    8.2753   17.9768   20.4043 C    0  0  0  0  0  0  0  0  0  0  0  0
    8.6126   16.7970   21.2989 C    0  0  0  0  0  0  0  0  0  0  0  0
    9.7657   16.4608   21.5032 O    0  0  0  0  0  0  0  0  0  0  0  0
    7.5426   16.1595   21.8356 N    0  0  0  0  0  0  0  0  0  0  0  0
    7.5735   14.9631   22.6942 C    0  0  0  0  0  0  0  0  0  0  0  0
    6.3832   14.9595   23.6923 C    0  0  0  0  0  0  0  0  0  0  0  0
    4.9496   14.7975   23.1644 C    0  0  0  0  0  0  0  0  0  0  0  0
    4.6697   14.3127   21.8720 C    0  0  0  0  0  0  0  0  0  0  0  0
    3.3463   14.1339   21.4375 C    0  0  0  0  0  0  0  0  0  0  0  0
    3.0827   13.6533   20.1433 C    0  0  0  0  0  0  0  0  0  0  0  0
    1.7592   13.4518   19.7239 C    0  0  0  0  0  0  0  0  0  0  0  0
    0.6961   13.7299   20.5958 C    0  0  0  0  0  0  0  0  0  0  0  0
    0.9475   14.2119   21.8890 C    0  0  0  0  0  0  0  0  0  0  0  0
    2.2724   14.4212   22.3195 C    0  0  0  0  0  0  0  0  0  0  0  0
    2.5461   14.9048   23.6088 C    0  0  0  0  0  0  0  0  0  0  0  0
    3.8714   15.1080   24.0189 C    0  0  0  0  0  0  0  0  0  0  0  0
    6.6195   13.9098   24.6985 N    0  0  0  0  0  0  0  0  0  0  0  0
    6.8945   14.1022   26.0195 C    0  0  0  0  0  0  0  0  0  0  0  0
    6.7197   15.1691   26.5822 O    0  0  0  0  0  0  0  0  0  0  0  0
    7.5907   12.9400   26.7302 C    0  0  0  0  0  0  0  0  0  0  0  0
    8.4622   12.0542   25.8148 C    0  0  0  0  0  0  0  0  0  0  0  0
    9.6560   12.4221   25.2040 C    0  0  0  0  0  0  0  0  0  0  0  0
   10.4244   13.7141   25.4391 C    0  0  0  0  0  0  0  0  0  0  0  0
    8.1588   10.7906   25.3394 C    0  0  0  0  0  0  0  0  0  0  0  0
    6.9350    9.9732   25.7146 C    0  0  0  0  0  0  0  0  0  0  0  0
    9.1467   10.4342   24.4552 N    0  0  0  0  0  0  0  0  0  0  0  0
   10.1254   11.3722   24.2743 N    0  0  0  0  0  0  0  0  0  0  0  0
    9.1819    9.2261   23.6109 C    0  0  0  0  0  0  0  0  0  0  0  0
    8.8949   18.8360   20.6708 H    0  0  0  0  0  0  0  0  0  0  0  0
    7.2248   18.2804   20.4660 H    0  0  0  0  0  0  0  0  0  0  0  0
    6.6323   16.5772   21.6679 H    0  0  0  0  0  0  0  0  0  0  0  0
    7.5962   14.0626   22.0762 H    0  0  0  0  0  0  0  0  0  0  0  0
    8.5093   14.9569   23.2632 H    0  0  0  0  0  0  0  0  0  0  0  0
    6.4211   15.9358   24.1869 H    0  0  0  0  0  0  0  0  0  0  0  0
    5.4734   14.0604   21.1875 H    0  0  0  0  0  0  0  0  0  0  0  0
    3.8981   13.4356   19.4535 H    0  0  0  0  0  0  0  0  0  0  0  0
    1.5586   13.0733   18.7253 H    0  0  0  0  0  0  0  0  0  0  0  0
   -0.3274   13.5690   20.2670 H    0  0  0  0  0  0  0  0  0  0  0  0
    0.1112   14.4190   22.5531 H    0  0  0  0  0  0  0  0  0  0  0  0
    1.7390   15.1300   24.3024 H    0  0  0  0  0  0  0  0  0  0  0  0
    4.0565   15.4952   25.0196 H    0  0  0  0  0  0  0  0  0  0  0  0
    6.8002   12.9860   24.3266 H    0  0  0  0  0  0  0  0  0  0  0  0
    8.2313   13.3440   27.5203 H    0  0  0  0  0  0  0  0  0  0  0  0
    6.8260   12.3569   27.2490 H    0  0  0  0  0  0  0  0  0  0  0  0
   10.9111   13.6988   26.4156 H    0  0  0  0  0  0  0  0  0  0  0  0
    9.7613   14.5763   25.4060 H    0  0  0  0  0  0  0  0  0  0  0  0
   11.2025   13.8580   24.6848 H    0  0  0  0  0  0  0  0  0  0  0  0
    7.0501    8.9200   25.4496 H    0  0  0  0  0  0  0  0  0  0  0  0
    6.0536   10.3601   25.1991 H    0  0  0  0  0  0  0  0  0  0  0  0
    6.7555   10.0062   26.7899 H    0  0  0  0  0  0  0  0  0  0  0  0
   10.0313    9.1958   22.9219 H    0  0  0  0  0  0  0  0  0  0  0  0
    8.2764    9.1230   23.0069 H    0  0  0  0  0  0  0  0  0  0  0  0
    9.2588    8.3255   24.2261 H    0  0  0  0  0  0  0  0  0  0  0  0
  7 18  1  0  0  0  0
  6  7  1  0  0  0  0
  5  6  1  0  0  0  0
  3  5  1  0  0  0  0
  2  3  1  0  0  0  0
  1  2  1  0  0  0  0
 30  2  1  0  0  0  0
 31  2  1  0  0  0  0
  4  3  2  0  0  0  0
 32  5  1  0  0  0  0
 33  6  1  0  0  0  0
 34  6  1  0  0  0  0
 35  7  1  0  0  0  0
  8  7  1  0  0  0  0
 17  8  2  0  0  0  0
  9  8  1  0  0  0  0
 36  9  1  0  0  0  0
 10  9  2  0  0  0  0
 11 10  1  0  0  0  0
 37 11  1  0  0  0  0
 12 11  2  0  0  0  0
 38 12  1  0  0  0  0
 13 12  1  0  0  0  0
 39 13  1  0  0  0  0
 14 13  2  0  0  0  0
 40 14  1  0  0  0  0
 15 14  1  0  0  0  0
 16 15  2  0  0  0  0
 41 16  1  0  0  0  0
 42 17  1  0  0  0  0
 43 18  1  0  0  0  0
 19 18  1  0  0  0  0
 20 19  2  0  0  0  0
 21 19  1  0  0  0  0
 44 21  1  0  0  0  0
 45 21  1  0  0  0  0
 22 21  1  0  0  0  0
 23 22  1  0  0  0  0
 28 23  2  0  0  0  0
 24 23  1  0  0  0  0
 46 24  1  0  0  0  0
 47 24  1  0  0  0  0
 48 24  1  0  0  0  0
 25 22  2  0  0  0  0
 26 25  1  0  0  0  0
 49 26  1  0  0  0  0
 50 26  1  0  0  0  0
 51 26  1  0  0  0  0
 27 25  1  0  0  0  0
 29 27  1  0  0  0  0
 52 29  1  0  0  0  0
 53 29  1  0  0  0  0
 54 29  1  0  0  0  0
 15 10  1  0  0  0  0
 17 16  1  0  0  0  0
 28 27  1  0  0  0  0
M  END
>  <FittedScore>
-29.36

$$$$
