A71EV2A-x1346a_best-RMSD
  FITTED

 54 56     0  0  0  0  0  0  0999 V2000
   11.9084   14.9711   23.1156 CL   0  0  0  0  0  0  0  0  0  0  0  0
   10.8977   14.8176   21.6407 C    0  0  0  0  0  0  0  0  0  0  0  0
    9.4564   14.4386   21.9753 C    0  0  0  0  0  0  0  0  0  0  0  0
    9.0669   13.2877   21.9962 O    0  0  0  0  0  0  0  0  0  0  0  0
    8.5883   15.4711   22.0978 N    0  0  0  0  0  0  0  0  0  0  0  0
    7.1203   15.3231   22.0593 C    0  0  0  0  0  0  0  0  0  0  0  0
    6.3271   15.1748   23.3996 C    0  0  0  0  0  0  0  0  0  0  0  0
    4.7991   14.8917   23.2594 C    0  0  0  0  0  0  0  0  0  0  0  0
    4.1886   14.6062   22.0122 C    0  0  0  0  0  0  0  0  0  0  0  0
    2.8072   14.4020   21.8875 C    0  0  0  0  0  0  0  0  0  0  0  0
    2.2423   14.1318   20.6283 C    0  0  0  0  0  0  0  0  0  0  0  0
    0.8577   13.9582   20.5018 C    0  0  0  0  0  0  0  0  0  0  0  0
    0.0323   14.0400   21.6328 C    0  0  0  0  0  0  0  0  0  0  0  0
    0.5884   14.3038   22.8949 C    0  0  0  0  0  0  0  0  0  0  0  0
    1.9788   14.4856   23.0339 C    0  0  0  0  0  0  0  0  0  0  0  0
    2.5617   14.7633   24.2811 C    0  0  0  0  0  0  0  0  0  0  0  0
    3.9535   14.9354   24.3942 C    0  0  0  0  0  0  0  0  0  0  0  0
    6.9780   14.1818   24.3002 N    0  0  0  0  0  0  0  0  0  0  0  0
    7.2039   14.3164   25.6370 C    0  0  0  0  0  0  0  0  0  0  0  0
    6.8545   15.3029   26.2664 O    0  0  0  0  0  0  0  0  0  0  0  0
    8.0853   13.2635   26.3103 C    0  0  0  0  0  0  0  0  0  0  0  0
    8.1207   11.8699   25.6653 C    0  0  0  0  0  0  0  0  0  0  0  0
    7.1648   10.8735   25.8078 C    0  0  0  0  0  0  0  0  0  0  0  0
    5.8993   10.9510   26.6401 C    0  0  0  0  0  0  0  0  0  0  0  0
    9.1222   11.3289   24.8791 C    0  0  0  0  0  0  0  0  0  0  0  0
   10.4382   12.0087   24.5098 C    0  0  0  0  0  0  0  0  0  0  0  0
    8.7343   10.0541   24.5476 N    0  0  0  0  0  0  0  0  0  0  0  0
    7.5400    9.6539   25.0690 N    0  0  0  0  0  0  0  0  0  0  0  0
    9.3374    9.1914   23.5211 C    0  0  0  0  0  0  0  0  0  0  0  0
   10.9501   15.7662   21.0984 H    0  0  0  0  0  0  0  0  0  0  0  0
   11.3630   14.0495   21.0143 H    0  0  0  0  0  0  0  0  0  0  0  0
    8.9480   16.4135   22.0473 H    0  0  0  0  0  0  0  0  0  0  0  0
    6.7418   16.2019   21.5302 H    0  0  0  0  0  0  0  0  0  0  0  0
    6.8859   14.4718   21.4143 H    0  0  0  0  0  0  0  0  0  0  0  0
    6.4101   16.1610   23.8665 H    0  0  0  0  0  0  0  0  0  0  0  0
    4.7621   14.5539   21.0946 H    0  0  0  0  0  0  0  0  0  0  0  0
    2.8695   14.0657   19.7403 H    0  0  0  0  0  0  0  0  0  0  0  0
    0.4266   13.7591   19.5245 H    0  0  0  0  0  0  0  0  0  0  0  0
   -1.0415   13.9024   21.5289 H    0  0  0  0  0  0  0  0  0  0  0  0
   -0.0738   14.3656   23.7571 H    0  0  0  0  0  0  0  0  0  0  0  0
    1.9417   14.8351   25.1747 H    0  0  0  0  0  0  0  0  0  0  0  0
    4.3569   15.1380   25.3803 H    0  0  0  0  0  0  0  0  0  0  0  0
    7.4015   13.3846   23.8435 H    0  0  0  0  0  0  0  0  0  0  0  0
    9.0934   13.6700   26.4066 H    0  0  0  0  0  0  0  0  0  0  0  0
    7.7469   13.1440   27.3410 H    0  0  0  0  0  0  0  0  0  0  0  0
    6.1471   10.9663   27.7038 H    0  0  0  0  0  0  0  0  0  0  0  0
    5.2602   10.0836   26.4561 H    0  0  0  0  0  0  0  0  0  0  0  0
    5.3304   11.8511   26.3932 H    0  0  0  0  0  0  0  0  0  0  0  0
   10.7855   11.7097   23.5195 H    0  0  0  0  0  0  0  0  0  0  0  0
   11.2203   11.7456   25.2237 H    0  0  0  0  0  0  0  0  0  0  0  0
   10.3422   13.0924   24.5138 H    0  0  0  0  0  0  0  0  0  0  0  0
   10.4259    9.1372   23.6252 H    0  0  0  0  0  0  0  0  0  0  0  0
    9.1214    9.5630   22.5155 H    0  0  0  0  0  0  0  0  0  0  0  0
    8.9742    8.1589   23.5641 H    0  0  0  0  0  0  0  0  0  0  0  0
  7 18  1  0  0  0  0
  6  7  1  0  0  0  0
  5  6  1  0  0  0  0
  3  5  1  0  0  0  0
  2  3  1  0  0  0  0
  1  2  1  0  0  0  0
 30  2  1  0  0  0  0
 31  2  1  0  0  0  0
  4  3  2  0  0  0  0
 32  5  1  0  0  0  0
 33  6  1  0  0  0  0
 34  6  1  0  0  0  0
 35  7  1  0  0  0  0
  8  7  1  0  0  0  0
 17  8  2  0  0  0  0
  9  8  1  0  0  0  0
 36  9  1  0  0  0  0
 10  9  2  0  0  0  0
 11 10  1  0  0  0  0
 37 11  1  0  0  0  0
 12 11  2  0  0  0  0
 38 12  1  0  0  0  0
 13 12  1  0  0  0  0
 39 13  1  0  0  0  0
 14 13  2  0  0  0  0
 40 14  1  0  0  0  0
 15 14  1  0  0  0  0
 16 15  2  0  0  0  0
 41 16  1  0  0  0  0
 42 17  1  0  0  0  0
 43 18  1  0  0  0  0
 19 18  1  0  0  0  0
 20 19  2  0  0  0  0
 21 19  1  0  0  0  0
 44 21  1  0  0  0  0
 45 21  1  0  0  0  0
 22 21  1  0  0  0  0
 23 22  1  0  0  0  0
 28 23  2  0  0  0  0
 24 23  1  0  0  0  0
 46 24  1  0  0  0  0
 47 24  1  0  0  0  0
 48 24  1  0  0  0  0
 25 22  2  0  0  0  0
 26 25  1  0  0  0  0
 49 26  1  0  0  0  0
 50 26  1  0  0  0  0
 51 26  1  0  0  0  0
 27 25  1  0  0  0  0
 29 27  1  0  0  0  0
 52 29  1  0  0  0  0
 53 29  1  0  0  0  0
 54 29  1  0  0  0  0
 15 10  1  0  0  0  0
 17 16  1  0  0  0  0
 28 27  1  0  0  0  0
M  END
>  <FittedScore>
-25.29

$$$$
