A71EV2A-x4316a_lowest-energy
  FITTED

 41 43     0  0  0  0  0  0  0999 V2000
    7.1590   15.5706   28.1111 O    0  0  0  0  0  0  0  0  0  0  0  0
    6.4501   15.4580   27.1328 C    0  0  0  0  0  0  0  0  0  0  0  0
    5.1076   16.2058   27.0904 C    0  0  0  0  0  0  0  0  0  0  0  0
    4.1290   15.8034   25.9480 C    0  0  0  0  0  0  0  0  0  0  0  0
    4.9143   15.6065   24.6243 C    0  0  0  0  0  0  0  0  0  0  0  0
    4.0529   15.2271   23.4238 C    0  0  0  0  0  0  0  0  0  0  0  0
    3.0214   14.5828   23.4615 O    0  0  0  0  0  0  0  0  0  0  0  0
    4.5454   15.6129   22.2397 N    0  0  0  0  0  0  0  0  0  0  0  0
    5.9750   14.5060   24.8461 C    0  0  0  0  0  0  0  0  0  0  0  0
    6.8310   14.6848   26.0560 N    0  0  0  0  0  0  0  0  0  0  0  0
    8.0435   13.7982   26.0784 C    0  0  0  0  0  0  0  0  0  0  0  0
    7.7261   12.3356   25.8589 C    0  0  0  0  0  0  0  0  0  0  0  0
    6.7820   11.5494   26.5373 C    0  0  0  0  0  0  0  0  0  0  0  0
    6.6633   10.1946   26.1953 C    0  0  0  0  0  0  0  0  0  0  0  0
    7.5020    9.6374   25.2120 C    0  0  0  0  0  0  0  0  0  0  0  0
    9.1623   14.1433   25.0446 C    0  0  0  0  0  0  0  0  0  0  0  0
    9.4409   12.8411   24.2610 C    0  0  0  0  0  0  0  0  0  0  0  0
    8.5331   11.7969   24.8706 C    0  0  0  0  0  0  0  0  0  0  0  0
    8.4680   10.4354   24.5522 C    0  0  0  0  0  0  0  0  0  0  0  0
    9.3815    9.9588   23.6241 O    0  0  0  0  0  0  0  0  0  0  0  0
    9.5080    8.5819   23.2199 C    0  0  0  0  0  0  0  0  0  0  0  0
    4.5994   16.0506   28.0459 H    0  0  0  0  0  0  0  0  0  0  0  0
    5.3167   17.2769   27.0183 H    0  0  0  0  0  0  0  0  0  0  0  0
    3.6129   14.8771   26.2229 H    0  0  0  0  0  0  0  0  0  0  0  0
    3.3620   16.5722   25.8242 H    0  0  0  0  0  0  0  0  0  0  0  0
    5.4372   16.5476   24.4092 H    0  0  0  0  0  0  0  0  0  0  0  0
    5.2444   16.3517   22.2173 H    0  0  0  0  0  0  0  0  0  0  0  0
    3.9520   15.4773   21.4302 H    0  0  0  0  0  0  0  0  0  0  0  0
    5.4516   13.5478   24.9306 H    0  0  0  0  0  0  0  0  0  0  0  0
    6.5908   14.4261   23.9460 H    0  0  0  0  0  0  0  0  0  0  0  0
    8.5252   13.8270   27.0589 H    0  0  0  0  0  0  0  0  0  0  0  0
    6.1503   11.9848   27.3070 H    0  0  0  0  0  0  0  0  0  0  0  0
    5.9286    9.5716   26.6997 H    0  0  0  0  0  0  0  0  0  0  0  0
    7.3946    8.5794   24.9872 H    0  0  0  0  0  0  0  0  0  0  0  0
    8.8798   14.9550   24.3683 H    0  0  0  0  0  0  0  0  0  0  0  0
   10.0680   14.4683   25.5639 H    0  0  0  0  0  0  0  0  0  0  0  0
    9.2008   12.9739   23.2033 H    0  0  0  0  0  0  0  0  0  0  0  0
   10.4928   12.5520   24.3421 H    0  0  0  0  0  0  0  0  0  0  0  0
    9.7752    7.9576   24.0723 H    0  0  0  0  0  0  0  0  0  0  0  0
   10.3001    8.5138   22.4727 H    0  0  0  0  0  0  0  0  0  0  0  0
    8.5758    8.2244   22.7722 H    0  0  0  0  0  0  0  0  0  0  0  0
  5  9  1  0  0  0  0
  6  5  1  0  0  0  0
  7  6  2  0  0  0  0
  4  5  1  0  0  0  0
  3  4  1  0  0  0  0
  2  3  1  0  0  0  0
  1  2  2  0  0  0  0
 22  3  1  0  0  0  0
 23  3  1  0  0  0  0
 24  4  1  0  0  0  0
 25  4  1  0  0  0  0
 26  5  1  0  0  0  0
  8  6  1  0  0  0  0
 27  8  1  0  0  0  0
 28  8  1  0  0  0  0
 29  9  1  0  0  0  0
 30  9  1  0  0  0  0
 10  9  1  0  0  0  0
 11 10  1  0  0  0  0
 31 11  1  0  0  0  0
 12 11  1  0  0  0  0
 18 12  2  0  0  0  0
 13 12  1  0  0  0  0
 32 13  1  0  0  0  0
 14 13  2  0  0  0  0
 33 14  1  0  0  0  0
 15 14  1  0  0  0  0
 34 15  1  0  0  0  0
 16 11  1  0  0  0  0
 35 16  1  0  0  0  0
 36 16  1  0  0  0  0
 17 16  1  0  0  0  0
 37 17  1  0  0  0  0
 38 17  1  0  0  0  0
 19 15  2  0  0  0  0
 20 19  1  0  0  0  0
 21 20  1  0  0  0  0
 39 21  1  0  0  0  0
 40 21  1  0  0  0  0
 41 21  1  0  0  0  0
 10  2  1  0  0  0  0
 18 17  1  0  0  0  0
 19 18  1  0  0  0  0
M  END
>  <FittedScore>
-23.38

$$$$
