A71EV2A-x4316a_best-RMSD
  FITTED

 41 43     0  0  0  0  0  0  0999 V2000
    7.0456   15.5367   27.5551 O    0  0  0  0  0  0  0  0  0  0  0  0
    6.5104   15.4819   26.4593 C    0  0  0  0  0  0  0  0  0  0  0  0
    5.2062   16.2482   26.2548 C    0  0  0  0  0  0  0  0  0  0  0  0
    4.2338   15.5481   25.2845 C    0  0  0  0  0  0  0  0  0  0  0  0
    4.9224   15.2533   23.9188 C    0  0  0  0  0  0  0  0  0  0  0  0
    3.9935   14.4879   22.9588 C    0  0  0  0  0  0  0  0  0  0  0  0
    2.8330   14.2182   23.2100 O    0  0  0  0  0  0  0  0  0  0  0  0
    4.5174   14.0239   21.8017 N    0  0  0  0  0  0  0  0  0  0  0  0
    6.2790   14.5064   24.1295 C    0  0  0  0  0  0  0  0  0  0  0  0
    7.0178   14.7303   25.4229 N    0  0  0  0  0  0  0  0  0  0  0  0
    8.2234   13.8326   25.5992 C    0  0  0  0  0  0  0  0  0  0  0  0
    7.8449   12.3706   25.6266 C    0  0  0  0  0  0  0  0  0  0  0  0
    6.8242   11.7608   26.3669 C    0  0  0  0  0  0  0  0  0  0  0  0
    6.6281   10.3755   26.2217 C    0  0  0  0  0  0  0  0  0  0  0  0
    7.4583    9.6194   25.3685 C    0  0  0  0  0  0  0  0  0  0  0  0
    9.3819   13.9489   24.5561 C    0  0  0  0  0  0  0  0  0  0  0  0
    9.6455   12.5082   24.0582 C    0  0  0  0  0  0  0  0  0  0  0  0
    8.6448   11.6345   24.7707 C    0  0  0  0  0  0  0  0  0  0  0  0
    8.5042   10.2511   24.6515 C    0  0  0  0  0  0  0  0  0  0  0  0
    9.4374    9.6032   23.8555 O    0  0  0  0  0  0  0  0  0  0  0  0
    9.3669    8.2481   23.3916 C    0  0  0  0  0  0  0  0  0  0  0  0
    4.7025   16.3863   27.2169 H    0  0  0  0  0  0  0  0  0  0  0  0
    5.4483   17.2472   25.8807 H    0  0  0  0  0  0  0  0  0  0  0  0
    3.8785   14.6204   25.7500 H    0  0  0  0  0  0  0  0  0  0  0  0
    3.3586   16.1887   25.1326 H    0  0  0  0  0  0  0  0  0  0  0  0
    5.1255   16.2218   23.4517 H    0  0  0  0  0  0  0  0  0  0  0  0
    5.5000   14.1274   21.5756 H    0  0  0  0  0  0  0  0  0  0  0  0
    3.9123   13.5347   21.1527 H    0  0  0  0  0  0  0  0  0  0  0  0
    6.0803   13.4383   24.0165 H    0  0  0  0  0  0  0  0  0  0  0  0
    6.9224   14.7810   23.2935 H    0  0  0  0  0  0  0  0  0  0  0  0
    8.7043   14.0272   26.5588 H    0  0  0  0  0  0  0  0  0  0  0  0
    6.1905   12.3472   27.0243 H    0  0  0  0  0  0  0  0  0  0  0  0
    5.8362    9.8913   26.7902 H    0  0  0  0  0  0  0  0  0  0  0  0
    7.3044    8.5433   25.3053 H    0  0  0  0  0  0  0  0  0  0  0  0
    9.1467   14.6035   23.7151 H    0  0  0  0  0  0  0  0  0  0  0  0
   10.2826   14.3522   25.0251 H    0  0  0  0  0  0  0  0  0  0  0  0
    9.5051   12.4317   22.9741 H    0  0  0  0  0  0  0  0  0  0  0  0
   10.6609   12.1879   24.3076 H    0  0  0  0  0  0  0  0  0  0  0  0
    8.4158    8.0148   22.9027 H    0  0  0  0  0  0  0  0  0  0  0  0
    9.5122    7.5612   24.2276 H    0  0  0  0  0  0  0  0  0  0  0  0
   10.1824    8.1009   22.6862 H    0  0  0  0  0  0  0  0  0  0  0  0
  5  9  1  0  0  0  0
  6  5  1  0  0  0  0
  7  6  2  0  0  0  0
  4  5  1  0  0  0  0
  3  4  1  0  0  0  0
  2  3  1  0  0  0  0
  1  2  2  0  0  0  0
 22  3  1  0  0  0  0
 23  3  1  0  0  0  0
 24  4  1  0  0  0  0
 25  4  1  0  0  0  0
 26  5  1  0  0  0  0
  8  6  1  0  0  0  0
 27  8  1  0  0  0  0
 28  8  1  0  0  0  0
 29  9  1  0  0  0  0
 30  9  1  0  0  0  0
 10  9  1  0  0  0  0
 11 10  1  0  0  0  0
 31 11  1  0  0  0  0
 12 11  1  0  0  0  0
 18 12  2  0  0  0  0
 13 12  1  0  0  0  0
 32 13  1  0  0  0  0
 14 13  2  0  0  0  0
 33 14  1  0  0  0  0
 15 14  1  0  0  0  0
 34 15  1  0  0  0  0
 16 11  1  0  0  0  0
 35 16  1  0  0  0  0
 36 16  1  0  0  0  0
 17 16  1  0  0  0  0
 37 17  1  0  0  0  0
 38 17  1  0  0  0  0
 19 15  2  0  0  0  0
 20 19  1  0  0  0  0
 21 20  1  0  0  0  0
 39 21  1  0  0  0  0
 40 21  1  0  0  0  0
 41 21  1  0  0  0  0
 10  2  1  0  0  0  0
 18 17  1  0  0  0  0
 19 18  1  0  0  0  0
M  END
>  <FittedScore>
-23.41

$$$$
