A71EV2A-x7254a_best-RMSD
  FITTED

 59 61     0  0  0  0  0  0  0999 V2000
    9.5673    8.5890   23.4594 C    0  0  0  0  0  0  0  0  0  0  0  0
    9.4729   10.3475   23.9222 S    0  0  0  0  0  0  0  0  0  0  0  0
    8.0151   10.5410   24.9454 C    0  0  0  0  0  0  0  0  0  0  0  0
    7.3246    9.4148   25.2814 N    0  0  0  0  0  0  0  0  0  0  0  0
    6.2210    9.5463   26.0587 C    0  0  0  0  0  0  0  0  0  0  0  0
    5.7266   10.7286   26.5070 N    0  0  0  0  0  0  0  0  0  0  0  0
    6.3857   11.8732   26.1654 C    0  0  0  0  0  0  0  0  0  0  0  0
    5.8091   13.0578   26.5941 N    0  0  0  0  0  0  0  0  0  0  0  0
    4.8828   13.7834   25.6942 C    0  0  0  0  0  0  0  0  0  0  0  0
    5.8614   13.4215   28.0359 C    0  0  0  0  0  0  0  0  0  0  0  0
    5.9405   14.9578   28.3349 C    0  0  0  0  0  0  0  0  0  0  0  0
    7.2104   15.6677   27.8042 C    0  0  0  0  0  0  0  0  0  0  0  0
    7.4470   16.8753   28.7316 C    0  0  0  0  0  0  0  0  0  0  0  0
    6.7170   16.5711   30.0556 C    0  0  0  0  0  0  0  0  0  0  0  0
    5.8987   15.2798   29.8468 C    0  0  0  0  0  0  0  0  0  0  0  0
    7.5820   11.8230   25.3918 C    0  0  0  0  0  0  0  0  0  0  0  0
    8.3661   13.0992   25.0376 C    0  0  0  0  0  0  0  0  0  0  0  0
    8.0888   13.6698   23.6420 C    0  0  0  0  0  0  0  0  0  0  0  0
    7.2957   13.1055   22.8986 O    0  0  0  0  0  0  0  0  0  0  0  0
    8.8334   14.7526   23.2188 N    0  0  0  0  0  0  0  0  0  0  0  0
    9.8254   15.5520   24.0311 C    0  0  0  0  0  0  0  0  0  0  0  0
   11.2725   15.5063   23.4604 C    0  0  0  0  0  0  0  0  0  0  0  0
   11.3187   15.9051   21.9611 C    0  0  0  0  0  0  0  0  0  0  0  0
   10.2403   15.1265   21.1494 C    0  0  0  0  0  0  0  0  0  0  0  0
   10.2433   15.5722   19.6935 C    0  0  0  0  0  0  0  0  0  0  0  0
   10.7835   14.6939   18.8261 N    0  0  0  0  0  0  0  0  0  0  0  0
    9.7081   16.5930   19.3006 O    0  0  0  0  0  0  0  0  0  0  0  0
    8.8295   15.2435   21.8050 C    0  0  0  0  0  0  0  0  0  0  0  0
    8.6808    8.3052   22.8875 H    0  0  0  0  0  0  0  0  0  0  0  0
    9.6386    7.9709   24.3578 H    0  0  0  0  0  0  0  0  0  0  0  0
   10.4537    8.4136   22.8463 H    0  0  0  0  0  0  0  0  0  0  0  0
    5.6849    8.6414   26.3337 H    0  0  0  0  0  0  0  0  0  0  0  0
    3.8969   13.9182   26.1457 H    0  0  0  0  0  0  0  0  0  0  0  0
    4.7221   13.2514   24.7512 H    0  0  0  0  0  0  0  0  0  0  0  0
    5.2697   14.7680   25.4224 H    0  0  0  0  0  0  0  0  0  0  0  0
    6.7154   12.9317   28.5192 H    0  0  0  0  0  0  0  0  0  0  0  0
    4.9745   13.0178   28.5348 H    0  0  0  0  0  0  0  0  0  0  0  0
    5.0684   15.4510   27.8936 H    0  0  0  0  0  0  0  0  0  0  0  0
    7.0769   15.9930   26.7677 H    0  0  0  0  0  0  0  0  0  0  0  0
    8.0809   15.0052   27.8382 H    0  0  0  0  0  0  0  0  0  0  0  0
    7.0446   17.7880   28.2803 H    0  0  0  0  0  0  0  0  0  0  0  0
    8.5158   17.0339   28.9022 H    0  0  0  0  0  0  0  0  0  0  0  0
    6.0588   17.4013   30.3271 H    0  0  0  0  0  0  0  0  0  0  0  0
    7.4378   16.4406   30.8675 H    0  0  0  0  0  0  0  0  0  0  0  0
    4.8657   15.4220   30.1770 H    0  0  0  0  0  0  0  0  0  0  0  0
    6.3248   14.4710   30.4492 H    0  0  0  0  0  0  0  0  0  0  0  0
    9.4337   12.9065   25.1548 H    0  0  0  0  0  0  0  0  0  0  0  0
    8.1593   13.8749   25.7667 H    0  0  0  0  0  0  0  0  0  0  0  0
    9.8797   15.2571   25.0772 H    0  0  0  0  0  0  0  0  0  0  0  0
    9.4908   16.5933   24.0713 H    0  0  0  0  0  0  0  0  0  0  0  0
   11.6850   14.4993   23.5830 H    0  0  0  0  0  0  0  0  0  0  0  0
   11.9202   16.1788   24.0307 H    0  0  0  0  0  0  0  0  0  0  0  0
   12.3103   15.6718   21.5625 H    0  0  0  0  0  0  0  0  0  0  0  0
   11.1735   16.9866   21.8549 H    0  0  0  0  0  0  0  0  0  0  0  0
   10.5121   14.0639   21.1944 H    0  0  0  0  0  0  0  0  0  0  0  0
   10.7918   14.9066   17.8353 H    0  0  0  0  0  0  0  0  0  0  0  0
   11.0217   13.7524   19.1398 H    0  0  0  0  0  0  0  0  0  0  0  0
    8.1157   14.7068   21.1713 H    0  0  0  0  0  0  0  0  0  0  0  0
    8.4932   16.2865   21.7897 H    0  0  0  0  0  0  0  0  0  0  0  0
 16 17  1  0  0  0  0
  7 16  2  0  0  0  0
  6  7  1  0  0  0  0
  5  6  2  0  0  0  0
  4  5  1  0  0  0  0
  3  4  2  0  0  0  0
  2  3  1  0  0  0  0
  1  2  1  0  0  0  0
 29  1  1  0  0  0  0
 30  1  1  0  0  0  0
 31  1  1  0  0  0  0
 32  5  1  0  0  0  0
  8  7  1  0  0  0  0
  9  8  1  0  0  0  0
 10  8  1  0  0  0  0
 33  9  1  0  0  0  0
 34  9  1  0  0  0  0
 35  9  1  0  0  0  0
 11 10  1  0  0  0  0
 36 10  1  0  0  0  0
 37 10  1  0  0  0  0
 12 11  1  0  0  0  0
 38 11  1  0  0  0  0
 13 12  1  0  0  0  0
 39 12  1  0  0  0  0
 40 12  1  0  0  0  0
 14 13  1  0  0  0  0
 41 13  1  0  0  0  0
 42 13  1  0  0  0  0
 15 14  1  0  0  0  0
 43 14  1  0  0  0  0
 44 14  1  0  0  0  0
 45 15  1  0  0  0  0
 46 15  1  0  0  0  0
 18 17  1  0  0  0  0
 47 17  1  0  0  0  0
 48 17  1  0  0  0  0
 19 18  2  0  0  0  0
 20 18  1  0  0  0  0
 21 20  1  0  0  0  0
 22 21  1  0  0  0  0
 49 21  1  0  0  0  0
 50 21  1  0  0  0  0
 23 22  1  0  0  0  0
 51 22  1  0  0  0  0
 52 22  1  0  0  0  0
 24 23  1  0  0  0  0
 53 23  1  0  0  0  0
 54 23  1  0  0  0  0
 25 24  1  0  0  0  0
 28 24  1  0  0  0  0
 55 24  1  0  0  0  0
 26 25  1  0  0  0  0
 27 25  2  0  0  0  0
 56 26  1  0  0  0  0
 57 26  1  0  0  0  0
 58 28  1  0  0  0  0
 59 28  1  0  0  0  0
 15 11  1  0  0  0  0
 16  3  1  0  0  0  0
 28 20  1  0  0  0  0
M  END
>  <FittedScore>
-36.06

$$$$
