A71EV2A-x7254a_lowest-energy
  FITTED

 59 61     0  0  0  0  0  0  0999 V2000
    9.6296    8.5425   23.5002 C    0  0  0  0  0  0  0  0  0  0  0  0
    9.4571   10.3189   23.8596 S    0  0  0  0  0  0  0  0  0  0  0  0
    8.0179   10.5138   24.9058 C    0  0  0  0  0  0  0  0  0  0  0  0
    7.3250    9.3925   25.2500 N    0  0  0  0  0  0  0  0  0  0  0  0
    6.2368    9.5259   26.0496 C    0  0  0  0  0  0  0  0  0  0  0  0
    5.7590   10.7117   26.5126 N    0  0  0  0  0  0  0  0  0  0  0  0
    6.4190   11.8475   26.1602 C    0  0  0  0  0  0  0  0  0  0  0  0
    5.8607   13.0231   26.6235 N    0  0  0  0  0  0  0  0  0  0  0  0
    6.2324   13.5261   27.9611 C    0  0  0  0  0  0  0  0  0  0  0  0
    5.1391   13.9327   25.6947 C    0  0  0  0  0  0  0  0  0  0  0  0
    3.7078   14.3081   26.1941 C    0  0  0  0  0  0  0  0  0  0  0  0
    2.7930   13.0888   26.4577 C    0  0  0  0  0  0  0  0  0  0  0  0
    1.3551   13.5221   26.1201 C    0  0  0  0  0  0  0  0  0  0  0  0
    1.4644   14.7437   25.1891 C    0  0  0  0  0  0  0  0  0  0  0  0
    2.9350   15.2125   25.2022 C    0  0  0  0  0  0  0  0  0  0  0  0
    7.5992   11.7963   25.3612 C    0  0  0  0  0  0  0  0  0  0  0  0
    8.3889   13.0716   24.9980 C    0  0  0  0  0  0  0  0  0  0  0  0
    8.0865   13.6439   23.6050 C    0  0  0  0  0  0  0  0  0  0  0  0
    7.2954   13.0778   22.8676 O    0  0  0  0  0  0  0  0  0  0  0  0
    8.8219   14.7236   23.1623 N    0  0  0  0  0  0  0  0  0  0  0  0
    9.7550   15.5738   23.9791 C    0  0  0  0  0  0  0  0  0  0  0  0
   11.2228   15.5269   23.4743 C    0  0  0  0  0  0  0  0  0  0  0  0
   11.3204   15.8981   21.9697 C    0  0  0  0  0  0  0  0  0  0  0  0
   10.2842   15.0995   21.1241 C    0  0  0  0  0  0  0  0  0  0  0  0
   10.3159   15.5562   19.6709 C    0  0  0  0  0  0  0  0  0  0  0  0
   10.8237   14.6683   18.7970 N    0  0  0  0  0  0  0  0  0  0  0  0
    9.8143   16.5938   19.2781 O    0  0  0  0  0  0  0  0  0  0  0  0
    8.8463   15.1708   21.7319 C    0  0  0  0  0  0  0  0  0  0  0  0
   10.5274    8.3732   22.9017 H    0  0  0  0  0  0  0  0  0  0  0  0
    8.7606    8.1788   22.9469 H    0  0  0  0  0  0  0  0  0  0  0  0
    9.7275    7.9848   24.4339 H    0  0  0  0  0  0  0  0  0  0  0  0
    5.7037    8.6216   26.3343 H    0  0  0  0  0  0  0  0  0  0  0  0
    5.4758   13.2587   28.7016 H    0  0  0  0  0  0  0  0  0  0  0  0
    6.3443   14.6134   27.9828 H    0  0  0  0  0  0  0  0  0  0  0  0
    7.1836   13.1136   28.3072 H    0  0  0  0  0  0  0  0  0  0  0  0
    5.0528   13.4763   24.7020 H    0  0  0  0  0  0  0  0  0  0  0  0
    5.7148   14.8494   25.5347 H    0  0  0  0  0  0  0  0  0  0  0  0
    3.8042   14.8666   27.1307 H    0  0  0  0  0  0  0  0  0  0  0  0
    2.8667   12.7637   27.5000 H    0  0  0  0  0  0  0  0  0  0  0  0
    3.0728   12.2377   25.8256 H    0  0  0  0  0  0  0  0  0  0  0  0
    0.8176   13.7864   27.0357 H    0  0  0  0  0  0  0  0  0  0  0  0
    0.8031   12.7107   25.6365 H    0  0  0  0  0  0  0  0  0  0  0  0
    0.8012   15.5433   25.5299 H    0  0  0  0  0  0  0  0  0  0  0  0
    1.1618   14.4755   24.1730 H    0  0  0  0  0  0  0  0  0  0  0  0
    3.0001   16.2573   25.5184 H    0  0  0  0  0  0  0  0  0  0  0  0
    3.3432   15.1635   24.1876 H    0  0  0  0  0  0  0  0  0  0  0  0
    9.4594   12.8741   25.0818 H    0  0  0  0  0  0  0  0  0  0  0  0
    8.2097   13.8422   25.7469 H    0  0  0  0  0  0  0  0  0  0  0  0
    9.7616   15.3327   25.0385 H    0  0  0  0  0  0  0  0  0  0  0  0
    9.3995   16.6079   23.9478 H    0  0  0  0  0  0  0  0  0  0  0  0
   11.6321   14.5234   23.6329 H    0  0  0  0  0  0  0  0  0  0  0  0
   11.8365   16.2182   24.0595 H    0  0  0  0  0  0  0  0  0  0  0  0
   12.3306   15.6719   21.6148 H    0  0  0  0  0  0  0  0  0  0  0  0
   11.1658   16.9757   21.8434 H    0  0  0  0  0  0  0  0  0  0  0  0
   10.5850   14.0441   21.1785 H    0  0  0  0  0  0  0  0  0  0  0  0
   10.7811   14.8728   17.8071 H    0  0  0  0  0  0  0  0  0  0  0  0
   11.0256   13.7170   19.1064 H    0  0  0  0  0  0  0  0  0  0  0  0
    8.1778   14.5870   21.0916 H    0  0  0  0  0  0  0  0  0  0  0  0
    8.4627   16.1940   21.6739 H    0  0  0  0  0  0  0  0  0  0  0  0
 16 17  1  0  0  0  0
  7 16  2  0  0  0  0
  6  7  1  0  0  0  0
  5  6  2  0  0  0  0
  4  5  1  0  0  0  0
  3  4  2  0  0  0  0
  2  3  1  0  0  0  0
  1  2  1  0  0  0  0
 29  1  1  0  0  0  0
 30  1  1  0  0  0  0
 31  1  1  0  0  0  0
 32  5  1  0  0  0  0
  8  7  1  0  0  0  0
  9  8  1  0  0  0  0
 10  8  1  0  0  0  0
 33  9  1  0  0  0  0
 34  9  1  0  0  0  0
 35  9  1  0  0  0  0
 11 10  1  0  0  0  0
 36 10  1  0  0  0  0
 37 10  1  0  0  0  0
 12 11  1  0  0  0  0
 38 11  1  0  0  0  0
 13 12  1  0  0  0  0
 39 12  1  0  0  0  0
 40 12  1  0  0  0  0
 14 13  1  0  0  0  0
 41 13  1  0  0  0  0
 42 13  1  0  0  0  0
 15 14  1  0  0  0  0
 43 14  1  0  0  0  0
 44 14  1  0  0  0  0
 45 15  1  0  0  0  0
 46 15  1  0  0  0  0
 18 17  1  0  0  0  0
 47 17  1  0  0  0  0
 48 17  1  0  0  0  0
 19 18  2  0  0  0  0
 20 18  1  0  0  0  0
 21 20  1  0  0  0  0
 22 21  1  0  0  0  0
 49 21  1  0  0  0  0
 50 21  1  0  0  0  0
 23 22  1  0  0  0  0
 51 22  1  0  0  0  0
 52 22  1  0  0  0  0
 24 23  1  0  0  0  0
 53 23  1  0  0  0  0
 54 23  1  0  0  0  0
 25 24  1  0  0  0  0
 28 24  1  0  0  0  0
 55 24  1  0  0  0  0
 26 25  1  0  0  0  0
 27 25  2  0  0  0  0
 56 26  1  0  0  0  0
 57 26  1  0  0  0  0
 58 28  1  0  0  0  0
 59 28  1  0  0  0  0
 15 11  1  0  0  0  0
 16  3  1  0  0  0  0
 28 20  1  0  0  0  0
M  END
>  <FittedScore>
-37.61

$$$$
