A71EV2A-x5819b_best-RMSD
  FITTED

 41 42     0  0  0  0  0  0  0999 V2000
    9.4246    8.6376   23.3185 C    0  0  0  0  0  0  0  0  0  0  0  0
    9.4149   10.3251   23.9872 S    0  0  0  0  0  0  0  0  0  0  0  0
    7.9600   10.5806   25.0033 C    0  0  0  0  0  0  0  0  0  0  0  0
    7.1814    9.5007   25.4523 C    0  0  0  0  0  0  0  0  0  0  0  0
    6.0742    9.7083   26.2865 C    0  0  0  0  0  0  0  0  0  0  0  0
    5.7345   11.0107   26.6781 C    0  0  0  0  0  0  0  0  0  0  0  0
    4.1982   11.3039   27.7715 BR   0  0  0  0  0  0  0  0  0  0  0  0
    6.4939   12.1048   26.2361 C    0  0  0  0  0  0  0  0  0  0  0  0
    7.5929   11.8966   25.3946 C    0  0  0  0  0  0  0  0  0  0  0  0
    8.2824   13.0177   24.9441 O    0  0  0  0  0  0  0  0  0  0  0  0
    8.2126   13.4505   23.6585 C    0  0  0  0  0  0  0  0  0  0  0  0
    7.3909   12.9796   22.8842 O    0  0  0  0  0  0  0  0  0  0  0  0
    9.2548   14.2392   23.2224 N    0  0  0  0  0  0  0  0  0  0  0  0
    9.4234   14.5137   21.7575 C    0  0  0  0  0  0  0  0  0  0  0  0
   10.0826   15.8671   21.3836 C    0  0  0  0  0  0  0  0  0  0  0  0
   10.2218   16.0737   19.8712 C    0  0  0  0  0  0  0  0  0  0  0  0
   10.6735   15.0350   19.1236 N    0  0  0  0  0  0  0  0  0  0  0  0
    9.7709   17.0702   19.3423 O    0  0  0  0  0  0  0  0  0  0  0  0
   11.4069   16.0968   22.1592 C    0  0  0  0  0  0  0  0  0  0  0  0
   11.1530   15.9481   23.6835 C    0  0  0  0  0  0  0  0  0  0  0  0
   10.4594   14.5975   24.0700 C    0  0  0  0  0  0  0  0  0  0  0  0
   11.4963   13.4401   24.1671 C    0  0  0  0  0  0  0  0  0  0  0  0
   10.3096    8.5333   22.6867 H    0  0  0  0  0  0  0  0  0  0  0  0
    8.5346    8.4503   22.7156 H    0  0  0  0  0  0  0  0  0  0  0  0
    9.4995    7.9119   24.1277 H    0  0  0  0  0  0  0  0  0  0  0  0
    7.4256    8.4798   25.1773 H    0  0  0  0  0  0  0  0  0  0  0  0
    5.4949    8.8503   26.6214 H    0  0  0  0  0  0  0  0  0  0  0  0
    6.2177   13.1192   26.5212 H    0  0  0  0  0  0  0  0  0  0  0  0
    8.4647   14.4871   21.2339 H    0  0  0  0  0  0  0  0  0  0  0  0
   10.0031   13.6785   21.3589 H    0  0  0  0  0  0  0  0  0  0  0  0
    9.3877   16.6382   21.7419 H    0  0  0  0  0  0  0  0  0  0  0  0
   10.7979   14.1236   19.5601 H    0  0  0  0  0  0  0  0  0  0  0  0
   10.6650   15.1083   18.1109 H    0  0  0  0  0  0  0  0  0  0  0  0
   11.7896   17.1018   21.9571 H    0  0  0  0  0  0  0  0  0  0  0  0
   12.1732   15.3877   21.8341 H    0  0  0  0  0  0  0  0  0  0  0  0
   10.5225   16.7784   24.0207 H    0  0  0  0  0  0  0  0  0  0  0  0
   12.0986   16.0639   24.2215 H    0  0  0  0  0  0  0  0  0  0  0  0
   10.1101   14.7725   25.0889 H    0  0  0  0  0  0  0  0  0  0  0  0
   11.7854   13.0770   23.1797 H    0  0  0  0  0  0  0  0  0  0  0  0
   11.0895   12.6034   24.7341 H    0  0  0  0  0  0  0  0  0  0  0  0
   12.4072   13.7467   24.6814 H    0  0  0  0  0  0  0  0  0  0  0  0
 10 11  1  0  0  0  0
  9 10  1  0  0  0  0
  8  9  2  0  0  0  0
  6  8  1  0  0  0  0
  5  6  2  0  0  0  0
  4  5  1  0  0  0  0
  3  4  2  0  0  0  0
  2  3  1  0  0  0  0
  1  2  1  0  0  0  0
 23  1  1  0  0  0  0
 24  1  1  0  0  0  0
 25  1  1  0  0  0  0
 26  4  1  0  0  0  0
 27  5  1  0  0  0  0
  7  6  1  0  0  0  0
 28  8  1  0  0  0  0
 12 11  2  0  0  0  0
 13 11  1  0  0  0  0
 14 13  1  0  0  0  0
 15 14  1  0  0  0  0
 29 14  1  0  0  0  0
 30 14  1  0  0  0  0
 16 15  1  0  0  0  0
 19 15  1  0  0  0  0
 31 15  1  0  0  0  0
 17 16  1  0  0  0  0
 18 16  2  0  0  0  0
 32 17  1  0  0  0  0
 33 17  1  0  0  0  0
 20 19  1  0  0  0  0
 34 19  1  0  0  0  0
 35 19  1  0  0  0  0
 21 20  1  0  0  0  0
 36 20  1  0  0  0  0
 37 20  1  0  0  0  0
 22 21  1  0  0  0  0
 38 21  1  0  0  0  0
 39 22  1  0  0  0  0
 40 22  1  0  0  0  0
 41 22  1  0  0  0  0
  9  3  1  0  0  0  0
 21 13  1  0  0  0  0
M  END
>  <FittedScore>
-34.12

$$$$
