A71EV2A-x5249a_lowest-energy
  FITTED

 47 49     0  0  0  0  0  0  0999 V2000
    9.7082   16.6230   19.3819 O    0  0  0  0  0  0  0  0  0  0  0  0
   10.1604   15.5316   19.6803 C    0  0  0  0  0  0  0  0  0  0  0  0
   10.7451   14.7301   18.7694 N    0  0  0  0  0  0  0  0  0  0  0  0
   10.1198   14.9459   21.0829 C    0  0  0  0  0  0  0  0  0  0  0  0
   11.3894   15.3520   21.8834 C    0  0  0  0  0  0  0  0  0  0  0  0
   11.3688   14.6917   23.2814 C    0  0  0  0  0  0  0  0  0  0  0  0
   10.0220   14.9230   24.0158 C    0  0  0  0  0  0  0  0  0  0  0  0
    8.8268   15.3043   21.8715 C    0  0  0  0  0  0  0  0  0  0  0  0
    8.7785   14.6404   23.2062 N    0  0  0  0  0  0  0  0  0  0  0  0
    7.7782   13.7460   23.5426 C    0  0  0  0  0  0  0  0  0  0  0  0
    7.1222   13.1911   22.6747 O    0  0  0  0  0  0  0  0  0  0  0  0
    7.5569   13.4493   24.8739 N    0  0  0  0  0  0  0  0  0  0  0  0
    7.0889   12.1287   25.2875 C    0  0  0  0  0  0  0  0  0  0  0  0
    7.8300   10.9613   24.9765 C    0  0  0  0  0  0  0  0  0  0  0  0
    9.4351   11.0087   24.1718 S    0  0  0  0  0  0  0  0  0  0  0  0
    9.5948    9.3751   23.3833 C    0  0  0  0  0  0  0  0  0  0  0  0
    7.4558   14.5176   25.9196 C    0  0  0  0  0  0  0  0  0  0  0  0
    6.0736   15.2115   25.9406 C    0  0  0  0  0  0  0  0  0  0  0  0
    4.8669   14.2550   25.7608 C    0  0  0  0  0  0  0  0  0  0  0  0
    5.0523   13.0100   26.4669 O    0  0  0  0  0  0  0  0  0  0  0  0
    5.8888   11.9810   26.0533 C    0  0  0  0  0  0  0  0  0  0  0  0
    5.4565   10.7213   26.4741 C    0  0  0  0  0  0  0  0  0  0  0  0
    6.1646    9.5867   26.1187 C    0  0  0  0  0  0  0  0  0  0  0  0
    7.3376    9.7030   25.3722 C    0  0  0  0  0  0  0  0  0  0  0  0
   10.9894   13.7826   19.0142 H    0  0  0  0  0  0  0  0  0  0  0  0
   10.8272   15.0437   17.8018 H    0  0  0  0  0  0  0  0  0  0  0  0
   10.1190   13.8503   21.0030 H    0  0  0  0  0  0  0  0  0  0  0  0
   12.2891   15.0285   21.3545 H    0  0  0  0  0  0  0  0  0  0  0  0
   11.4447   16.4415   21.9829 H    0  0  0  0  0  0  0  0  0  0  0  0
   11.5618   13.6202   23.1831 H    0  0  0  0  0  0  0  0  0  0  0  0
   12.1831   15.1044   23.8819 H    0  0  0  0  0  0  0  0  0  0  0  0
   10.0605   14.3074   24.9172 H    0  0  0  0  0  0  0  0  0  0  0  0
    9.9864   15.9629   24.3525 H    0  0  0  0  0  0  0  0  0  0  0  0
    7.9607   15.0394   21.2562 H    0  0  0  0  0  0  0  0  0  0  0  0
    8.7502   16.3854   22.0161 H    0  0  0  0  0  0  0  0  0  0  0  0
   10.4381    9.3978   22.6927 H    0  0  0  0  0  0  0  0  0  0  0  0
    9.8045    8.6048   24.1287 H    0  0  0  0  0  0  0  0  0  0  0  0
    8.6812    9.1496   22.8361 H    0  0  0  0  0  0  0  0  0  0  0  0
    8.2025   15.2980   25.8253 H    0  0  0  0  0  0  0  0  0  0  0  0
    7.6661   14.0862   26.9038 H    0  0  0  0  0  0  0  0  0  0  0  0
    6.0413   15.9604   25.1435 H    0  0  0  0  0  0  0  0  0  0  0  0
    5.9709   15.7548   26.8829 H    0  0  0  0  0  0  0  0  0  0  0  0
    4.6832   14.0471   24.7039 H    0  0  0  0  0  0  0  0  0  0  0  0
    3.9706   14.7182   26.1669 H    0  0  0  0  0  0  0  0  0  0  0  0
    4.5486   10.6347   27.0680 H    0  0  0  0  0  0  0  0  0  0  0  0
    5.8156    8.6095   26.4385 H    0  0  0  0  0  0  0  0  0  0  0  0
    7.8847    8.7950   25.1493 H    0  0  0  0  0  0  0  0  0  0  0  0
  9 10  1  0  0  0  0
  7  9  1  0  0  0  0
  6  7  1  0  0  0  0
  5  6  1  0  0  0  0
  4  5  1  0  0  0  0
  2  4  1  0  0  0  0
  1  2  2  0  0  0  0
  3  2  1  0  0  0  0
 25  3  1  0  0  0  0
 26  3  1  0  0  0  0
 27  4  1  0  0  0  0
 28  5  1  0  0  0  0
 29  5  1  0  0  0  0
 30  6  1  0  0  0  0
 31  6  1  0  0  0  0
 32  7  1  0  0  0  0
 33  7  1  0  0  0  0
  8  4  1  0  0  0  0
 34  8  1  0  0  0  0
 35  8  1  0  0  0  0
 11 10  2  0  0  0  0
 12 10  1  0  0  0  0
 13 12  1  0  0  0  0
 14 13  1  0  0  0  0
 24 14  2  0  0  0  0
 15 14  1  0  0  0  0
 16 15  1  0  0  0  0
 36 16  1  0  0  0  0
 37 16  1  0  0  0  0
 38 16  1  0  0  0  0
 17 12  1  0  0  0  0
 39 17  1  0  0  0  0
 40 17  1  0  0  0  0
 18 17  1  0  0  0  0
 41 18  1  0  0  0  0
 42 18  1  0  0  0  0
 19 18  1  0  0  0  0
 43 19  1  0  0  0  0
 44 19  1  0  0  0  0
 20 19  1  0  0  0  0
 21 13  2  0  0  0  0
 22 21  1  0  0  0  0
 45 22  1  0  0  0  0
 23 22  2  0  0  0  0
 46 23  1  0  0  0  0
 47 24  1  0  0  0  0
  9  8  1  0  0  0  0
 21 20  1  0  0  0  0
 24 23  1  0  0  0  0
M  END
>  <FittedScore>
-32.26

$$$$
