A71EV2A-x5249a_best-RMSD
  FITTED

 47 49     0  0  0  0  0  0  0999 V2000
    9.5879   16.5702   19.3820 O    0  0  0  0  0  0  0  0  0  0  0  0
   10.1541   15.5362   19.6978 C    0  0  0  0  0  0  0  0  0  0  0  0
   10.7590   14.7499   18.7848 N    0  0  0  0  0  0  0  0  0  0  0  0
   10.1763   14.9503   21.1034 C    0  0  0  0  0  0  0  0  0  0  0  0
   11.4491   15.3881   21.8822 C    0  0  0  0  0  0  0  0  0  0  0  0
   11.4752   14.7094   23.2711 C    0  0  0  0  0  0  0  0  0  0  0  0
   10.1325   14.8521   24.0304 C    0  0  0  0  0  0  0  0  0  0  0  0
    8.8937   15.2579   21.9204 C    0  0  0  0  0  0  0  0  0  0  0  0
    8.8735   14.5700   23.2457 N    0  0  0  0  0  0  0  0  0  0  0  0
    7.8395   13.7320   23.6178 C    0  0  0  0  0  0  0  0  0  0  0  0
    7.1085   13.2210   22.7777 O    0  0  0  0  0  0  0  0  0  0  0  0
    7.6971   13.3734   24.9444 N    0  0  0  0  0  0  0  0  0  0  0  0
    7.1488   12.0756   25.3159 C    0  0  0  0  0  0  0  0  0  0  0  0
    7.8405   10.8738   24.9788 C    0  0  0  0  0  0  0  0  0  0  0  0
    9.4197   10.9168   24.0979 S    0  0  0  0  0  0  0  0  0  0  0  0
    9.9298    9.2247   23.6673 C    0  0  0  0  0  0  0  0  0  0  0  0
    7.7243   14.3708   26.0683 C    0  0  0  0  0  0  0  0  0  0  0  0
    6.4200   15.1942   26.1859 C    0  0  0  0  0  0  0  0  0  0  0  0
    5.1319   14.4070   25.8340 C    0  0  0  0  0  0  0  0  0  0  0  0
    5.1353   13.0823   26.4369 O    0  0  0  0  0  0  0  0  0  0  0  0
    5.9277   11.9952   26.0543 C    0  0  0  0  0  0  0  0  0  0  0  0
    5.4439   10.7543   26.4758 C    0  0  0  0  0  0  0  0  0  0  0  0
    6.1167    9.5824   26.1423 C    0  0  0  0  0  0  0  0  0  0  0  0
    7.2900    9.6398   25.3858 C    0  0  0  0  0  0  0  0  0  0  0  0
   10.8317   15.0484   17.8203 H    0  0  0  0  0  0  0  0  0  0  0  0
   11.0501   13.8092   19.0576 H    0  0  0  0  0  0  0  0  0  0  0  0
   10.2139   13.8566   21.0187 H    0  0  0  0  0  0  0  0  0  0  0  0
   12.3510   15.0966   21.3362 H    0  0  0  0  0  0  0  0  0  0  0  0
   11.4703   16.4769   21.9963 H    0  0  0  0  0  0  0  0  0  0  0  0
   11.7280   13.6509   23.1563 H    0  0  0  0  0  0  0  0  0  0  0  0
   12.2746   15.1537   23.8705 H    0  0  0  0  0  0  0  0  0  0  0  0
   10.2184   14.1793   24.8854 H    0  0  0  0  0  0  0  0  0  0  0  0
   10.0676   15.8684   24.4283 H    0  0  0  0  0  0  0  0  0  0  0  0
    8.0321   14.9883   21.3011 H    0  0  0  0  0  0  0  0  0  0  0  0
    8.8027   16.3357   22.0865 H    0  0  0  0  0  0  0  0  0  0  0  0
   10.1218    8.6596   24.5814 H    0  0  0  0  0  0  0  0  0  0  0  0
    9.1656    8.7297   23.0688 H    0  0  0  0  0  0  0  0  0  0  0  0
   10.8639    9.2825   23.1049 H    0  0  0  0  0  0  0  0  0  0  0  0
    8.5477   15.0728   26.0187 H    0  0  0  0  0  0  0  0  0  0  0  0
    7.9065   13.8461   27.0121 H    0  0  0  0  0  0  0  0  0  0  0  0
    6.4917   16.0622   25.5262 H    0  0  0  0  0  0  0  0  0  0  0  0
    6.3403   15.5769   27.2066 H    0  0  0  0  0  0  0  0  0  0  0  0
    4.9962   14.3160   24.7520 H    0  0  0  0  0  0  0  0  0  0  0  0
    4.2643   14.9458   26.2186 H    0  0  0  0  0  0  0  0  0  0  0  0
    4.5245   10.6973   27.0555 H    0  0  0  0  0  0  0  0  0  0  0  0
    5.7274    8.6246   26.4747 H    0  0  0  0  0  0  0  0  0  0  0  0
    7.7736    8.6988   25.1617 H    0  0  0  0  0  0  0  0  0  0  0  0
  9 10  1  0  0  0  0
  7  9  1  0  0  0  0
  6  7  1  0  0  0  0
  5  6  1  0  0  0  0
  4  5  1  0  0  0  0
  2  4  1  0  0  0  0
  1  2  2  0  0  0  0
  3  2  1  0  0  0  0
 25  3  1  0  0  0  0
 26  3  1  0  0  0  0
 27  4  1  0  0  0  0
 28  5  1  0  0  0  0
 29  5  1  0  0  0  0
 30  6  1  0  0  0  0
 31  6  1  0  0  0  0
 32  7  1  0  0  0  0
 33  7  1  0  0  0  0
  8  4  1  0  0  0  0
 34  8  1  0  0  0  0
 35  8  1  0  0  0  0
 11 10  2  0  0  0  0
 12 10  1  0  0  0  0
 13 12  1  0  0  0  0
 14 13  1  0  0  0  0
 24 14  2  0  0  0  0
 15 14  1  0  0  0  0
 16 15  1  0  0  0  0
 36 16  1  0  0  0  0
 37 16  1  0  0  0  0
 38 16  1  0  0  0  0
 17 12  1  0  0  0  0
 39 17  1  0  0  0  0
 40 17  1  0  0  0  0
 18 17  1  0  0  0  0
 41 18  1  0  0  0  0
 42 18  1  0  0  0  0
 19 18  1  0  0  0  0
 43 19  1  0  0  0  0
 44 19  1  0  0  0  0
 20 19  1  0  0  0  0
 21 13  2  0  0  0  0
 22 21  1  0  0  0  0
 45 22  1  0  0  0  0
 23 22  2  0  0  0  0
 46 23  1  0  0  0  0
 47 24  1  0  0  0  0
  9  8  1  0  0  0  0
 21 20  1  0  0  0  0
 24 23  1  0  0  0  0
M  END
>  <FittedScore>
-32.45

$$$$
