A71EV2A-x4921a_lowest-energy
  FITTED

 33 34     0  0  0  0  0  0  0999 V2000
    9.8726    9.1866   23.1176 CL   0  0  0  0  0  0  0  0  0  0  0  0
    8.8273   10.3020   23.9124 C    0  0  0  0  0  0  0  0  0  0  0  0
    7.8044    9.8376   24.7492 C    0  0  0  0  0  0  0  0  0  0  0  0
    6.9858   10.7515   25.4250 C    0  0  0  0  0  0  0  0  0  0  0  0
    7.1745   12.1271   25.2390 C    0  0  0  0  0  0  0  0  0  0  0  0
    9.0090   11.6784   23.7122 C    0  0  0  0  0  0  0  0  0  0  0  0
    8.1723   12.6101   24.3668 C    0  0  0  0  0  0  0  0  0  0  0  0
    8.2586   14.1271   24.1514 C    0  0  0  0  0  0  0  0  0  0  0  0
    9.5020   14.6095   23.4771 N    0  0  0  0  0  0  0  0  0  0  0  0
   10.6896   14.8212   24.1414 C    0  0  0  0  0  0  0  0  0  0  0  0
   10.8158   14.5729   25.3266 O    0  0  0  0  0  0  0  0  0  0  0  0
   11.9132   15.3410   23.3725 C    0  0  0  0  0  0  0  0  0  0  0  0
   11.6194   15.9335   21.9679 C    0  0  0  0  0  0  0  0  0  0  0  0
    9.3038   14.8894   22.0260 C    0  0  0  0  0  0  0  0  0  0  0  0
   10.6206   15.0306   21.2095 C    0  0  0  0  0  0  0  0  0  0  0  0
   10.3767   15.4960   19.7698 C    0  0  0  0  0  0  0  0  0  0  0  0
    9.7250   16.4787   19.4638 O    0  0  0  0  0  0  0  0  0  0  0  0
   10.7959   14.6305   18.8259 N    0  0  0  0  0  0  0  0  0  0  0  0
    7.6447    8.7719   24.8848 H    0  0  0  0  0  0  0  0  0  0  0  0
    6.1978   10.3955   26.0843 H    0  0  0  0  0  0  0  0  0  0  0  0
    6.5269   12.8236   25.7683 H    0  0  0  0  0  0  0  0  0  0  0  0
    9.7983   11.9976   23.0334 H    0  0  0  0  0  0  0  0  0  0  0  0
    7.3679   14.4512   23.6056 H    0  0  0  0  0  0  0  0  0  0  0  0
    8.1774   14.6327   25.1168 H    0  0  0  0  0  0  0  0  0  0  0  0
   12.4125   16.1133   23.9704 H    0  0  0  0  0  0  0  0  0  0  0  0
   12.6253   14.5169   23.2633 H    0  0  0  0  0  0  0  0  0  0  0  0
   11.2027   16.9420   22.0678 H    0  0  0  0  0  0  0  0  0  0  0  0
   12.5499   16.0295   21.4038 H    0  0  0  0  0  0  0  0  0  0  0  0
    8.7021   15.7996   21.9289 H    0  0  0  0  0  0  0  0  0  0  0  0
    8.7214   14.0858   21.5651 H    0  0  0  0  0  0  0  0  0  0  0  0
   11.0645   14.0258   21.1744 H    0  0  0  0  0  0  0  0  0  0  0  0
   10.6521   14.8487   17.8456 H    0  0  0  0  0  0  0  0  0  0  0  0
   11.1580   13.7172   19.0908 H    0  0  0  0  0  0  0  0  0  0  0  0
  8  9  1  0  0  0  0
  7  8  1  0  0  0  0
  5  7  1  0  0  0  0
  4  5  2  0  0  0  0
  3  4  1  0  0  0  0
  2  3  2  0  0  0  0
  1  2  1  0  0  0  0
 19  3  1  0  0  0  0
 20  4  1  0  0  0  0
 21  5  1  0  0  0  0
  6  2  1  0  0  0  0
 22  6  1  0  0  0  0
 23  8  1  0  0  0  0
 24  8  1  0  0  0  0
 10  9  1  0  0  0  0
 11 10  2  0  0  0  0
 12 10  1  0  0  0  0
 25 12  1  0  0  0  0
 26 12  1  0  0  0  0
 13 12  1  0  0  0  0
 27 13  1  0  0  0  0
 28 13  1  0  0  0  0
 14  9  1  0  0  0  0
 29 14  1  0  0  0  0
 30 14  1  0  0  0  0
 15 13  1  0  0  0  0
 16 15  1  0  0  0  0
 31 15  1  0  0  0  0
 17 16  2  0  0  0  0
 18 16  1  0  0  0  0
 32 18  1  0  0  0  0
 33 18  1  0  0  0  0
  7  6  2  0  0  0  0
 15 14  1  0  0  0  0
M  END
>  <FittedScore>
-33.15

$$$$
