A71EV2A-x4921a_best-RMSD
  FITTED

 33 34     0  0  0  0  0  0  0999 V2000
    9.8522    9.3074   23.2169 CL   0  0  0  0  0  0  0  0  0  0  0  0
    8.8278   10.4774   23.9671 C    0  0  0  0  0  0  0  0  0  0  0  0
    7.8152   10.0593   24.8429 C    0  0  0  0  0  0  0  0  0  0  0  0
    7.0176   11.0082   25.4925 C    0  0  0  0  0  0  0  0  0  0  0  0
    7.2185   12.3745   25.2520 C    0  0  0  0  0  0  0  0  0  0  0  0
    9.0291   11.8432   23.7215 C    0  0  0  0  0  0  0  0  0  0  0  0
    8.2195   12.8115   24.3607 C    0  0  0  0  0  0  0  0  0  0  0  0
    8.3393   14.3195   24.1017 C    0  0  0  0  0  0  0  0  0  0  0  0
    9.5925   14.7604   23.4174 N    0  0  0  0  0  0  0  0  0  0  0  0
   10.7929   14.9378   24.0733 C    0  0  0  0  0  0  0  0  0  0  0  0
   10.9177   14.6819   25.2557 O    0  0  0  0  0  0  0  0  0  0  0  0
   12.0297   15.4151   23.2945 C    0  0  0  0  0  0  0  0  0  0  0  0
   11.7599   15.9687   21.8686 C    0  0  0  0  0  0  0  0  0  0  0  0
    9.3915   15.0394   21.9661 C    0  0  0  0  0  0  0  0  0  0  0  0
   10.7063   15.0956   21.1441 C    0  0  0  0  0  0  0  0  0  0  0  0
   10.4714   15.5444   19.7018 C    0  0  0  0  0  0  0  0  0  0  0  0
    9.8978   16.5693   19.3825 O    0  0  0  0  0  0  0  0  0  0  0  0
   10.8047   14.6366   18.7724 N    0  0  0  0  0  0  0  0  0  0  0  0
    7.6560    9.0010   25.0327 H    0  0  0  0  0  0  0  0  0  0  0  0
    6.2415   10.6904   26.1835 H    0  0  0  0  0  0  0  0  0  0  0  0
    6.5830   13.0973   25.7603 H    0  0  0  0  0  0  0  0  0  0  0  0
    9.8152   12.1349   23.0291 H    0  0  0  0  0  0  0  0  0  0  0  0
    7.4511   14.6407   23.5467 H    0  0  0  0  0  0  0  0  0  0  0  0
    8.2646   14.8565   25.0509 H    0  0  0  0  0  0  0  0  0  0  0  0
   12.5411   16.1941   23.8700 H    0  0  0  0  0  0  0  0  0  0  0  0
   12.7299   14.5772   23.2187 H    0  0  0  0  0  0  0  0  0  0  0  0
   11.4115   17.0043   21.9339 H    0  0  0  0  0  0  0  0  0  0  0  0
   12.6943   15.9862   21.2978 H    0  0  0  0  0  0  0  0  0  0  0  0
    8.8614   15.9917   21.8803 H    0  0  0  0  0  0  0  0  0  0  0  0
    8.7511   14.2746   21.5129 H    0  0  0  0  0  0  0  0  0  0  0  0
   11.1035   14.0715   21.1439 H    0  0  0  0  0  0  0  0  0  0  0  0
   11.0445   13.6871   19.0530 H    0  0  0  0  0  0  0  0  0  0  0  0
   10.7676   14.8742   17.7911 H    0  0  0  0  0  0  0  0  0  0  0  0
  8  9  1  0  0  0  0
  7  8  1  0  0  0  0
  5  7  1  0  0  0  0
  4  5  2  0  0  0  0
  3  4  1  0  0  0  0
  2  3  2  0  0  0  0
  1  2  1  0  0  0  0
 19  3  1  0  0  0  0
 20  4  1  0  0  0  0
 21  5  1  0  0  0  0
  6  2  1  0  0  0  0
 22  6  1  0  0  0  0
 23  8  1  0  0  0  0
 24  8  1  0  0  0  0
 10  9  1  0  0  0  0
 11 10  2  0  0  0  0
 12 10  1  0  0  0  0
 25 12  1  0  0  0  0
 26 12  1  0  0  0  0
 13 12  1  0  0  0  0
 27 13  1  0  0  0  0
 28 13  1  0  0  0  0
 14  9  1  0  0  0  0
 29 14  1  0  0  0  0
 30 14  1  0  0  0  0
 15 13  1  0  0  0  0
 16 15  1  0  0  0  0
 31 15  1  0  0  0  0
 17 16  2  0  0  0  0
 18 16  1  0  0  0  0
 32 18  1  0  0  0  0
 33 18  1  0  0  0  0
  7  6  2  0  0  0  0
 15 14  1  0  0  0  0
M  END
>  <FittedScore>
-32.48

$$$$
