A71EV2A-x5409a_best-RMSD
  FITTED

 36 37     0  0  0  0  0  0  0999 V2000
   11.3195   14.8910   18.6105 N    0  0  0  0  0  0  0  0  0  0  0  0
   10.6839   15.4154   19.6699 C    0  0  0  0  0  0  0  0  0  0  0  0
    9.6683   16.0562   19.4972 O    0  0  0  0  0  0  0  0  0  0  0  0
   11.4084   15.2752   21.0090 C    0  0  0  0  0  0  0  0  0  0  0  0
   10.5031   15.3256   22.2824 C    0  0  0  0  0  0  0  0  0  0  0  0
   11.4053   15.2072   23.5612 C    0  0  0  0  0  0  0  0  0  0  0  0
   10.6119   14.8890   24.8595 C    0  0  0  0  0  0  0  0  0  0  0  0
    9.6700   13.7407   24.6846 N    0  0  0  0  0  0  0  0  0  0  0  0
   10.0694   12.4440   24.9210 C    0  0  0  0  0  0  0  0  0  0  0  0
   11.2384   12.1209   24.8276 O    0  0  0  0  0  0  0  0  0  0  0  0
    8.9943   11.3858   25.0006 C    0  0  0  0  0  0  0  0  0  0  0  0
    9.2424   10.1005   24.4681 C    0  0  0  0  0  0  0  0  0  0  0  0
    8.2421    9.1215   24.4870 C    0  0  0  0  0  0  0  0  0  0  0  0
    7.0093    9.3956   25.0909 C    0  0  0  0  0  0  0  0  0  0  0  0
    6.7814   10.6386   25.6898 C    0  0  0  0  0  0  0  0  0  0  0  0
    5.6475   10.8643   26.3729 F    0  0  0  0  0  0  0  0  0  0  0  0
    7.7525   11.6403   25.6216 C    0  0  0  0  0  0  0  0  0  0  0  0
    8.6592   14.0847   23.6287 C    0  0  0  0  0  0  0  0  0  0  0  0
    9.3453   14.2635   22.2501 C    0  0  0  0  0  0  0  0  0  0  0  0
   12.2141   14.4248   18.7278 H    0  0  0  0  0  0  0  0  0  0  0  0
   10.9441   15.0309   17.6778 H    0  0  0  0  0  0  0  0  0  0  0  0
   12.1588   16.0692   21.0762 H    0  0  0  0  0  0  0  0  0  0  0  0
   11.9708   14.3314   21.0257 H    0  0  0  0  0  0  0  0  0  0  0  0
   10.0311   16.3149   22.3141 H    0  0  0  0  0  0  0  0  0  0  0  0
   11.9513   16.1430   23.6998 H    0  0  0  0  0  0  0  0  0  0  0  0
   12.1605   14.4286   23.4167 H    0  0  0  0  0  0  0  0  0  0  0  0
   10.0576   15.7793   25.1720 H    0  0  0  0  0  0  0  0  0  0  0  0
   11.3126   14.6827   25.6707 H    0  0  0  0  0  0  0  0  0  0  0  0
   10.1980    9.8651   24.0005 H    0  0  0  0  0  0  0  0  0  0  0  0
    8.4305    8.1473   24.0458 H    0  0  0  0  0  0  0  0  0  0  0  0
    6.2388    8.6286   25.1193 H    0  0  0  0  0  0  0  0  0  0  0  0
    7.5476   12.6063   26.0793 H    0  0  0  0  0  0  0  0  0  0  0  0
    8.1247   15.0029   23.8983 H    0  0  0  0  0  0  0  0  0  0  0  0
    7.8762   13.3359   23.5114 H    0  0  0  0  0  0  0  0  0  0  0  0
    8.5817   14.5535   21.5254 H    0  0  0  0  0  0  0  0  0  0  0  0
    9.7358   13.2951   21.9202 H    0  0  0  0  0  0  0  0  0  0  0  0
 18 19  1  0  0  0  0
  8 18  1  0  0  0  0
  7  8  1  0  0  0  0
  6  7  1  0  0  0  0
  5  6  1  0  0  0  0
  4  5  1  0  0  0  0
  2  4  1  0  0  0  0
  1  2  1  0  0  0  0
 20  1  1  0  0  0  0
 21  1  1  0  0  0  0
  3  2  2  0  0  0  0
 22  4  1  0  0  0  0
 23  4  1  0  0  0  0
 24  5  1  0  0  0  0
 25  6  1  0  0  0  0
 26  6  1  0  0  0  0
 27  7  1  0  0  0  0
 28  7  1  0  0  0  0
  9  8  1  0  0  0  0
 10  9  2  0  0  0  0
 11  9  1  0  0  0  0
 12 11  2  0  0  0  0
 13 12  1  0  0  0  0
 29 12  1  0  0  0  0
 14 13  2  0  0  0  0
 30 13  1  0  0  0  0
 15 14  1  0  0  0  0
 31 14  1  0  0  0  0
 16 15  1  0  0  0  0
 17 15  2  0  0  0  0
 32 17  1  0  0  0  0
 33 18  1  0  0  0  0
 34 18  1  0  0  0  0
 35 19  1  0  0  0  0
 36 19  1  0  0  0  0
 17 11  1  0  0  0  0
 19  5  1  0  0  0  0
M  END
>  <FittedScore>
-28.94

$$$$
