A71EV2A-x3908a_lowest-energy
  FITTED

 58 60     0  0  0  0  0  0  0999 V2000
    6.6391   18.8562   26.7692 O    0  0  0  0  0  0  0  0  0  0  0  0
    7.0393   17.7237   26.5659 C    0  0  0  0  0  0  0  0  0  0  0  0
    8.1506   17.3096   27.2105 N    0  0  0  0  0  0  0  0  0  0  0  0
    6.3625   16.7344   25.5960 C    0  0  0  0  0  0  0  0  0  0  0  0
    5.0836   17.3252   24.9096 C    0  0  0  0  0  0  0  0  0  0  0  0
    4.4851   16.3962   23.8239 C    0  0  0  0  0  0  0  0  0  0  0  0
    5.5728   15.9230   22.8286 C    0  0  0  0  0  0  0  0  0  0  0  0
    7.3554   16.1937   24.5103 C    0  0  0  0  0  0  0  0  0  0  0  0
    6.7258   15.2703   23.5143 N    0  0  0  0  0  0  0  0  0  0  0  0
    7.1112   13.9696   23.2826 C    0  0  0  0  0  0  0  0  0  0  0  0
    6.4147   13.1872   22.6761 O    0  0  0  0  0  0  0  0  0  0  0  0
    8.4234   13.6606   23.5189 N    0  0  0  0  0  0  0  0  0  0  0  0
    9.4780   14.3538   22.7907 C    0  0  0  0  0  0  0  0  0  0  0  0
   10.6630   14.7597   23.4452 C    0  0  0  0  0  0  0  0  0  0  0  0
   11.6547   15.4495   22.7484 C    0  0  0  0  0  0  0  0  0  0  0  0
   11.4852   15.7785   21.4043 C    0  0  0  0  0  0  0  0  0  0  0  0
    9.3158   14.6908   21.4258 C    0  0  0  0  0  0  0  0  0  0  0  0
   10.3077   15.4050   20.7334 C    0  0  0  0  0  0  0  0  0  0  0  0
   10.1219   15.7801   19.2724 C    0  0  0  0  0  0  0  0  0  0  0  0
    8.7664   12.7870   24.6907 C    0  0  0  0  0  0  0  0  0  0  0  0
    7.9320   11.5248   24.9137 C    0  0  0  0  0  0  0  0  0  0  0  0
    8.2512   10.5536   24.2601 O    0  0  0  0  0  0  0  0  0  0  0  0
    6.9103   11.4646   25.8427 N    0  0  0  0  0  0  0  0  0  0  0  0
    6.2451   10.1651   26.2033 C    0  0  0  0  0  0  0  0  0  0  0  0
    5.7674   10.0033   27.6708 C    0  0  0  0  0  0  0  0  0  0  0  0
    4.9841   11.2330   28.1854 C    0  0  0  0  0  0  0  0  0  0  0  0
    5.7139   12.5649   27.8342 C    0  0  0  0  0  0  0  0  0  0  0  0
    6.1075   12.6326   26.3308 C    0  0  0  0  0  0  0  0  0  0  0  0
    8.6042   17.9399   27.8607 H    0  0  0  0  0  0  0  0  0  0  0  0
    8.5774   16.4112   27.0183 H    0  0  0  0  0  0  0  0  0  0  0  0
    6.0272   15.8875   26.2028 H    0  0  0  0  0  0  0  0  0  0  0  0
    4.3225   17.5094   25.6703 H    0  0  0  0  0  0  0  0  0  0  0  0
    5.3155   18.2917   24.4481 H    0  0  0  0  0  0  0  0  0  0  0  0
    4.0084   15.5277   24.2904 H    0  0  0  0  0  0  0  0  0  0  0  0
    3.7002   16.9320   23.2806 H    0  0  0  0  0  0  0  0  0  0  0  0
    5.1078   15.2691   22.0906 H    0  0  0  0  0  0  0  0  0  0  0  0
    5.9424   16.7777   22.2539 H    0  0  0  0  0  0  0  0  0  0  0  0
    8.1769   15.7153   25.0419 H    0  0  0  0  0  0  0  0  0  0  0  0
    7.8161   17.0273   23.9712 H    0  0  0  0  0  0  0  0  0  0  0  0
   10.8257   14.5675   24.5014 H    0  0  0  0  0  0  0  0  0  0  0  0
   12.5671   15.7344   23.2646 H    0  0  0  0  0  0  0  0  0  0  0  0
   12.2713   16.3296   20.8920 H    0  0  0  0  0  0  0  0  0  0  0  0
    8.4121   14.3934   20.8945 H    0  0  0  0  0  0  0  0  0  0  0  0
   11.0696   16.0606   18.8027 H    0  0  0  0  0  0  0  0  0  0  0  0
    9.4439   16.6328   19.1910 H    0  0  0  0  0  0  0  0  0  0  0  0
    9.7056   14.9512   18.6941 H    0  0  0  0  0  0  0  0  0  0  0  0
    8.8198   13.3901   25.6021 H    0  0  0  0  0  0  0  0  0  0  0  0
    9.7915   12.4231   24.5665 H    0  0  0  0  0  0  0  0  0  0  0  0
    5.3922   10.0366   25.5324 H    0  0  0  0  0  0  0  0  0  0  0  0
    6.8969    9.3144   25.9968 H    0  0  0  0  0  0  0  0  0  0  0  0
    5.1392    9.1071   27.7498 H    0  0  0  0  0  0  0  0  0  0  0  0
    6.6357    9.8310   28.3183 H    0  0  0  0  0  0  0  0  0  0  0  0
    3.9875   11.2253   27.7230 H    0  0  0  0  0  0  0  0  0  0  0  0
    4.8353   11.1550   29.2705 H    0  0  0  0  0  0  0  0  0  0  0  0
    5.0637   13.4055   28.0772 H    0  0  0  0  0  0  0  0  0  0  0  0
    6.6088   12.6680   28.4555 H    0  0  0  0  0  0  0  0  0  0  0  0
    5.1958   12.6986   25.7216 H    0  0  0  0  0  0  0  0  0  0  0  0
    6.6279   13.5708   26.1775 H    0  0  0  0  0  0  0  0  0  0  0  0
 10 12  1  0  0  0  0
  9 10  1  0  0  0  0
  7  9  1  0  0  0  0
  6  7  1  0  0  0  0
  5  6  1  0  0  0  0
  4  5  1  0  0  0  0
  2  4  1  0  0  0  0
  1  2  2  0  0  0  0
  3  2  1  0  0  0  0
 29  3  1  0  0  0  0
 30  3  1  0  0  0  0
 31  4  1  0  0  0  0
 32  5  1  0  0  0  0
 33  5  1  0  0  0  0
 34  6  1  0  0  0  0
 35  6  1  0  0  0  0
 36  7  1  0  0  0  0
 37  7  1  0  0  0  0
  8  4  1  0  0  0  0
 38  8  1  0  0  0  0
 39  8  1  0  0  0  0
 11 10  2  0  0  0  0
 13 12  1  0  0  0  0
 14 13  1  0  0  0  0
 40 14  1  0  0  0  0
 15 14  2  0  0  0  0
 41 15  1  0  0  0  0
 16 15  1  0  0  0  0
 42 16  1  0  0  0  0
 17 13  2  0  0  0  0
 43 17  1  0  0  0  0
 18 16  2  0  0  0  0
 19 18  1  0  0  0  0
 44 19  1  0  0  0  0
 45 19  1  0  0  0  0
 46 19  1  0  0  0  0
 20 12  1  0  0  0  0
 47 20  1  0  0  0  0
 48 20  1  0  0  0  0
 21 20  1  0  0  0  0
 22 21  2  0  0  0  0
 23 21  1  0  0  0  0
 28 23  1  0  0  0  0
 24 23  1  0  0  0  0
 49 24  1  0  0  0  0
 50 24  1  0  0  0  0
 25 24  1  0  0  0  0
 51 25  1  0  0  0  0
 52 25  1  0  0  0  0
 26 25  1  0  0  0  0
 53 26  1  0  0  0  0
 54 26  1  0  0  0  0
 27 26  1  0  0  0  0
 55 27  1  0  0  0  0
 56 27  1  0  0  0  0
 57 28  1  0  0  0  0
 58 28  1  0  0  0  0
  9  8  1  0  0  0  0
 18 17  1  0  0  0  0
 28 27  1  0  0  0  0
M  END
>  <FittedScore>
-26.45

$$$$
