A71EV2A-x3908a_best-RMSD
  FITTED

 58 60     0  0  0  0  0  0  0999 V2000
   10.9080   16.7956   20.6730 O    0  0  0  0  0  0  0  0  0  0  0  0
   10.7326   15.5964   20.6858 C    0  0  0  0  0  0  0  0  0  0  0  0
   11.1673   14.8551   19.6505 N    0  0  0  0  0  0  0  0  0  0  0  0
   10.1788   14.8567   21.9002 C    0  0  0  0  0  0  0  0  0  0  0  0
   11.2530   14.8314   23.0305 C    0  0  0  0  0  0  0  0  0  0  0  0
   10.6869   14.2758   24.3523 C    0  0  0  0  0  0  0  0  0  0  0  0
    9.3854   15.0100   24.7320 C    0  0  0  0  0  0  0  0  0  0  0  0
    8.8307   15.4887   22.3752 C    0  0  0  0  0  0  0  0  0  0  0  0
    8.3169   14.9572   23.6788 N    0  0  0  0  0  0  0  0  0  0  0  0
    6.9815   14.6507   23.8772 C    0  0  0  0  0  0  0  0  0  0  0  0
    6.1170   14.8410   23.0386 O    0  0  0  0  0  0  0  0  0  0  0  0
    6.5913   14.3606   25.1630 N    0  0  0  0  0  0  0  0  0  0  0  0
    6.5129   12.9694   25.6156 C    0  0  0  0  0  0  0  0  0  0  0  0
    7.4386   12.0169   25.1218 C    0  0  0  0  0  0  0  0  0  0  0  0
    7.4287   10.6985   25.5706 C    0  0  0  0  0  0  0  0  0  0  0  0
    6.4834   10.2893   26.5178 C    0  0  0  0  0  0  0  0  0  0  0  0
    5.5472   12.5363   26.5598 C    0  0  0  0  0  0  0  0  0  0  0  0
    5.5295   11.1976   27.0122 C    0  0  0  0  0  0  0  0  0  0  0  0
    4.5025   10.7240   28.0341 C    0  0  0  0  0  0  0  0  0  0  0  0
    6.1715   15.5368   26.0141 C    0  0  0  0  0  0  0  0  0  0  0  0
    6.8298   15.7597   27.3945 C    0  0  0  0  0  0  0  0  0  0  0  0
    7.6215   14.9505   27.8527 O    0  0  0  0  0  0  0  0  0  0  0  0
    6.4613   16.8764   28.1319 N    0  0  0  0  0  0  0  0  0  0  0  0
    6.6388   16.9738   29.6255 C    0  0  0  0  0  0  0  0  0  0  0  0
    7.5739   18.1354   30.0437 C    0  0  0  0  0  0  0  0  0  0  0  0
    7.0999   19.5020   29.4779 C    0  0  0  0  0  0  0  0  0  0  0  0
    6.7026   19.4304   27.9740 C    0  0  0  0  0  0  0  0  0  0  0  0
    5.8585   18.1591   27.6155 C    0  0  0  0  0  0  0  0  0  0  0  0
   11.7004   15.2971   18.9190 H    0  0  0  0  0  0  0  0  0  0  0  0
   11.0889   13.8445   19.6725 H    0  0  0  0  0  0  0  0  0  0  0  0
    9.9660   13.8143   21.6323 H    0  0  0  0  0  0  0  0  0  0  0  0
   12.1062   14.2181   22.7249 H    0  0  0  0  0  0  0  0  0  0  0  0
   11.6421   15.8381   23.2133 H    0  0  0  0  0  0  0  0  0  0  0  0
   10.5014   13.2025   24.2618 H    0  0  0  0  0  0  0  0  0  0  0  0
   11.4175   14.4094   25.1522 H    0  0  0  0  0  0  0  0  0  0  0  0
    9.0867   14.5587   25.6760 H    0  0  0  0  0  0  0  0  0  0  0  0
    9.5970   16.0557   24.9769 H    0  0  0  0  0  0  0  0  0  0  0  0
    8.1068   15.3628   21.5668 H    0  0  0  0  0  0  0  0  0  0  0  0
    8.9318   16.5689   22.4929 H    0  0  0  0  0  0  0  0  0  0  0  0
    8.1878   12.2829   24.3860 H    0  0  0  0  0  0  0  0  0  0  0  0
    8.1514    9.9928   25.1763 H    0  0  0  0  0  0  0  0  0  0  0  0
    6.5093    9.2606   26.8740 H    0  0  0  0  0  0  0  0  0  0  0  0
    4.7994   13.2324   26.9408 H    0  0  0  0  0  0  0  0  0  0  0  0
    4.6067    9.6543   28.2543 H    0  0  0  0  0  0  0  0  0  0  0  0
    3.4846   10.8663   27.6595 H    0  0  0  0  0  0  0  0  0  0  0  0
    4.6007   11.2676   28.9785 H    0  0  0  0  0  0  0  0  0  0  0  0
    5.0863   15.5123   26.1306 H    0  0  0  0  0  0  0  0  0  0  0  0
    6.3648   16.4381   25.4323 H    0  0  0  0  0  0  0  0  0  0  0  0
    5.6702   17.1239   30.1079 H    0  0  0  0  0  0  0  0  0  0  0  0
    7.0064   16.0556   30.0805 H    0  0  0  0  0  0  0  0  0  0  0  0
    7.6339   18.1924   31.1334 H    0  0  0  0  0  0  0  0  0  0  0  0
    8.5886   17.9208   29.6932 H    0  0  0  0  0  0  0  0  0  0  0  0
    6.2501   19.8703   30.0590 H    0  0  0  0  0  0  0  0  0  0  0  0
    7.8953   20.2356   29.6202 H    0  0  0  0  0  0  0  0  0  0  0  0
    6.1532   20.3396   27.7130 H    0  0  0  0  0  0  0  0  0  0  0  0
    7.6189   19.4298   27.3783 H    0  0  0  0  0  0  0  0  0  0  0  0
    4.8549   18.2498   28.0360 H    0  0  0  0  0  0  0  0  0  0  0  0
    5.7018   18.1729   26.5401 H    0  0  0  0  0  0  0  0  0  0  0  0
 10 12  1  0  0  0  0
  9 10  1  0  0  0  0
  7  9  1  0  0  0  0
  6  7  1  0  0  0  0
  5  6  1  0  0  0  0
  4  5  1  0  0  0  0
  2  4  1  0  0  0  0
  1  2  2  0  0  0  0
  3  2  1  0  0  0  0
 29  3  1  0  0  0  0
 30  3  1  0  0  0  0
 31  4  1  0  0  0  0
 32  5  1  0  0  0  0
 33  5  1  0  0  0  0
 34  6  1  0  0  0  0
 35  6  1  0  0  0  0
 36  7  1  0  0  0  0
 37  7  1  0  0  0  0
  8  4  1  0  0  0  0
 38  8  1  0  0  0  0
 39  8  1  0  0  0  0
 11 10  2  0  0  0  0
 13 12  1  0  0  0  0
 14 13  1  0  0  0  0
 40 14  1  0  0  0  0
 15 14  2  0  0  0  0
 41 15  1  0  0  0  0
 16 15  1  0  0  0  0
 42 16  1  0  0  0  0
 17 13  2  0  0  0  0
 43 17  1  0  0  0  0
 18 16  2  0  0  0  0
 19 18  1  0  0  0  0
 44 19  1  0  0  0  0
 45 19  1  0  0  0  0
 46 19  1  0  0  0  0
 20 12  1  0  0  0  0
 47 20  1  0  0  0  0
 48 20  1  0  0  0  0
 21 20  1  0  0  0  0
 22 21  2  0  0  0  0
 23 21  1  0  0  0  0
 28 23  1  0  0  0  0
 24 23  1  0  0  0  0
 49 24  1  0  0  0  0
 50 24  1  0  0  0  0
 25 24  1  0  0  0  0
 51 25  1  0  0  0  0
 52 25  1  0  0  0  0
 26 25  1  0  0  0  0
 53 26  1  0  0  0  0
 54 26  1  0  0  0  0
 27 26  1  0  0  0  0
 55 27  1  0  0  0  0
 56 27  1  0  0  0  0
 57 28  1  0  0  0  0
 58 28  1  0  0  0  0
  9  8  1  0  0  0  0
 18 17  1  0  0  0  0
 28 27  1  0  0  0  0
M  END
>  <FittedScore>
-23.23

$$$$
