A71EV2A-x5388a_lowest-energy
  FITTED

 38 39     0  0  0  0  0  0  0999 V2000
    9.9167   16.6130   19.6961 O    0  0  0  0  0  0  0  0  0  0  0  0
   10.6007   15.6281   19.9196 C    0  0  0  0  0  0  0  0  0  0  0  0
   10.8751   14.7738   18.9014 N    0  0  0  0  0  0  0  0  0  0  0  0
   10.8589   15.1109   21.3483 C    0  0  0  0  0  0  0  0  0  0  0  0
   11.8653   14.0861   21.3950 O    0  0  0  0  0  0  0  0  0  0  0  0
   11.3662   16.1584   22.3508 C    0  0  0  0  0  0  0  0  0  0  0  0
   10.9968   15.5223   23.7075 C    0  0  0  0  0  0  0  0  0  0  0  0
    9.5834   14.5722   22.0239 C    0  0  0  0  0  0  0  0  0  0  0  0
    9.8103   14.6642   23.4828 N    0  0  0  0  0  0  0  0  0  0  0  0
    9.0691   14.0670   24.4671 C    0  0  0  0  0  0  0  0  0  0  0  0
    9.4560   14.0411   25.6171 O    0  0  0  0  0  0  0  0  0  0  0  0
    7.6681   13.5460   24.1279 C    0  0  0  0  0  0  0  0  0  0  0  0
    7.2614   12.3056   24.9263 C    0  0  0  0  0  0  0  0  0  0  0  0
    7.7835   11.0146   24.6492 C    0  0  0  0  0  0  0  0  0  0  0  0
    9.1002   10.8125   23.4408 S    0  0  0  0  0  0  0  0  0  0  0  0
    9.6608    9.0825   23.4185 C    0  0  0  0  0  0  0  0  0  0  0  0
    6.3078   12.4697   25.9476 C    0  0  0  0  0  0  0  0  0  0  0  0
    5.8258   11.3618   26.6528 C    0  0  0  0  0  0  0  0  0  0  0  0
    4.5471   11.6340   28.0361 BR   0  0  0  0  0  0  0  0  0  0  0  0
    6.2730   10.0729   26.3299 C    0  0  0  0  0  0  0  0  0  0  0  0
    7.2509    9.9055   25.3406 C    0  0  0  0  0  0  0  0  0  0  0  0
   10.8520   15.0820   17.9338 H    0  0  0  0  0  0  0  0  0  0  0  0
   11.1145   13.8056   19.1166 H    0  0  0  0  0  0  0  0  0  0  0  0
   11.6890   13.4692   20.6667 H    0  0  0  0  0  0  0  0  0  0  0  0
   12.4395   16.3517   22.2580 H    0  0  0  0  0  0  0  0  0  0  0  0
   10.8422   17.1076   22.2315 H    0  0  0  0  0  0  0  0  0  0  0  0
   11.8270   14.9133   24.0884 H    0  0  0  0  0  0  0  0  0  0  0  0
   10.7744   16.2933   24.4485 H    0  0  0  0  0  0  0  0  0  0  0  0
    9.3937   13.5428   21.7021 H    0  0  0  0  0  0  0  0  0  0  0  0
    8.7083   15.1693   21.7519 H    0  0  0  0  0  0  0  0  0  0  0  0
    6.9742   14.3721   24.3001 H    0  0  0  0  0  0  0  0  0  0  0  0
    7.5211   13.3043   23.0778 H    0  0  0  0  0  0  0  0  0  0  0  0
   10.5056    8.9943   22.7323 H    0  0  0  0  0  0  0  0  0  0  0  0
    8.8658    8.4183   23.0755 H    0  0  0  0  0  0  0  0  0  0  0  0
    9.9963    8.7996   24.4168 H    0  0  0  0  0  0  0  0  0  0  0  0
    5.9398   13.4647   26.1923 H    0  0  0  0  0  0  0  0  0  0  0  0
    5.8900    9.1994   26.8562 H    0  0  0  0  0  0  0  0  0  0  0  0
    7.5959    8.8954   25.1454 H    0  0  0  0  0  0  0  0  0  0  0  0
  9 10  1  0  0  0  0
  7  9  1  0  0  0  0
  6  7  1  0  0  0  0
  4  6  1  0  0  0  0
  5  4  1  0  0  0  0
  2  4  1  0  0  0  0
  1  2  2  0  0  0  0
  3  2  1  0  0  0  0
 22  3  1  0  0  0  0
 23  3  1  0  0  0  0
 24  5  1  0  0  0  0
 25  6  1  0  0  0  0
 26  6  1  0  0  0  0
 27  7  1  0  0  0  0
 28  7  1  0  0  0  0
  8  4  1  0  0  0  0
 29  8  1  0  0  0  0
 30  8  1  0  0  0  0
 11 10  2  0  0  0  0
 12 10  1  0  0  0  0
 31 12  1  0  0  0  0
 32 12  1  0  0  0  0
 13 12  1  0  0  0  0
 14 13  1  0  0  0  0
 21 14  2  0  0  0  0
 15 14  1  0  0  0  0
 16 15  1  0  0  0  0
 33 16  1  0  0  0  0
 34 16  1  0  0  0  0
 35 16  1  0  0  0  0
 17 13  2  0  0  0  0
 36 17  1  0  0  0  0
 18 17  1  0  0  0  0
 19 18  1  0  0  0  0
 20 18  2  0  0  0  0
 37 20  1  0  0  0  0
 38 21  1  0  0  0  0
  9  8  1  0  0  0  0
 21 20  1  0  0  0  0
M  END
>  <FittedScore>
-35.27

$$$$
