A71EV2A-x5388a_best-RMSD
  FITTED

 38 39     0  0  0  0  0  0  0999 V2000
    9.7487   16.5921   19.6190 O    0  0  0  0  0  0  0  0  0  0  0  0
   10.6002   15.7447   19.8343 C    0  0  0  0  0  0  0  0  0  0  0  0
   11.3052   15.2641   18.7891 N    0  0  0  0  0  0  0  0  0  0  0  0
   10.8956   15.1809   21.2425 C    0  0  0  0  0  0  0  0  0  0  0  0
   11.8994   14.1517   21.2601 O    0  0  0  0  0  0  0  0  0  0  0  0
   11.3772   16.2190   22.2685 C    0  0  0  0  0  0  0  0  0  0  0  0
   10.9853   15.5790   23.6186 C    0  0  0  0  0  0  0  0  0  0  0  0
    9.6269   14.6087   21.9110 C    0  0  0  0  0  0  0  0  0  0  0  0
    9.8047   14.7177   23.3728 N    0  0  0  0  0  0  0  0  0  0  0  0
    9.0372   14.1278   24.3387 C    0  0  0  0  0  0  0  0  0  0  0  0
    9.3874   14.1419   25.5034 O    0  0  0  0  0  0  0  0  0  0  0  0
    7.6728   13.5366   23.9552 C    0  0  0  0  0  0  0  0  0  0  0  0
    7.2709   12.3223   24.8010 C    0  0  0  0  0  0  0  0  0  0  0  0
    7.8247   11.0304   24.5980 C    0  0  0  0  0  0  0  0  0  0  0  0
    9.2031   10.8132   23.4689 S    0  0  0  0  0  0  0  0  0  0  0  0
    9.6019    9.0431   23.3190 C    0  0  0  0  0  0  0  0  0  0  0  0
    6.2931   12.5122   25.7952 C    0  0  0  0  0  0  0  0  0  0  0  0
    5.8165   11.4270   26.5393 C    0  0  0  0  0  0  0  0  0  0  0  0
    4.5487   11.7405   27.9223 BR   0  0  0  0  0  0  0  0  0  0  0  0
    6.2871   10.1327   26.2766 C    0  0  0  0  0  0  0  0  0  0  0  0
    7.2890    9.9413   25.3157 C    0  0  0  0  0  0  0  0  0  0  0  0
   12.0946   14.6350   18.9156 H    0  0  0  0  0  0  0  0  0  0  0  0
   11.0576   15.5501   17.8489 H    0  0  0  0  0  0  0  0  0  0  0  0
   11.7041   13.5063   20.5617 H    0  0  0  0  0  0  0  0  0  0  0  0
   12.4508   16.4277   22.2038 H    0  0  0  0  0  0  0  0  0  0  0  0
   10.8473   17.1705   22.1447 H    0  0  0  0  0  0  0  0  0  0  0  0
   11.8062   14.9711   24.0143 H    0  0  0  0  0  0  0  0  0  0  0  0
   10.7525   16.3560   24.3514 H    0  0  0  0  0  0  0  0  0  0  0  0
    9.4794   13.5663   21.6057 H    0  0  0  0  0  0  0  0  0  0  0  0
    8.7271   15.1638   21.6253 H    0  0  0  0  0  0  0  0  0  0  0  0
    6.9411   14.3430   24.0465 H    0  0  0  0  0  0  0  0  0  0  0  0
    7.5938   13.2363   22.9106 H    0  0  0  0  0  0  0  0  0  0  0  0
    9.9514    8.6486   24.2732 H    0  0  0  0  0  0  0  0  0  0  0  0
   10.4075    8.9310   22.5902 H    0  0  0  0  0  0  0  0  0  0  0  0
    8.7374    8.4815   22.9606 H    0  0  0  0  0  0  0  0  0  0  0  0
    5.8967   13.5084   25.9801 H    0  0  0  0  0  0  0  0  0  0  0  0
    5.9044    9.2747   26.8264 H    0  0  0  0  0  0  0  0  0  0  0  0
    7.6541    8.9311   25.1698 H    0  0  0  0  0  0  0  0  0  0  0  0
  9 10  1  0  0  0  0
  7  9  1  0  0  0  0
  6  7  1  0  0  0  0
  4  6  1  0  0  0  0
  5  4  1  0  0  0  0
  2  4  1  0  0  0  0
  1  2  2  0  0  0  0
  3  2  1  0  0  0  0
 22  3  1  0  0  0  0
 23  3  1  0  0  0  0
 24  5  1  0  0  0  0
 25  6  1  0  0  0  0
 26  6  1  0  0  0  0
 27  7  1  0  0  0  0
 28  7  1  0  0  0  0
  8  4  1  0  0  0  0
 29  8  1  0  0  0  0
 30  8  1  0  0  0  0
 11 10  2  0  0  0  0
 12 10  1  0  0  0  0
 31 12  1  0  0  0  0
 32 12  1  0  0  0  0
 13 12  1  0  0  0  0
 14 13  1  0  0  0  0
 21 14  2  0  0  0  0
 15 14  1  0  0  0  0
 16 15  1  0  0  0  0
 33 16  1  0  0  0  0
 34 16  1  0  0  0  0
 35 16  1  0  0  0  0
 17 13  2  0  0  0  0
 36 17  1  0  0  0  0
 18 17  1  0  0  0  0
 19 18  1  0  0  0  0
 20 18  2  0  0  0  0
 37 20  1  0  0  0  0
 38 21  1  0  0  0  0
  9  8  1  0  0  0  0
 21 20  1  0  0  0  0
M  END
>  <FittedScore>
-34.33

$$$$
