A71EV2A-x5894a_lowest-energy
  FITTED

 41 43     0  0  0  0  0  0  0999 V2000
    6.4581   14.4826   22.6346 C    0  0  0  0  0  0  0  0  0  0  0  0
    7.7264   14.1807   23.4990 C    0  0  0  0  0  0  0  0  0  0  0  0
    7.9086   12.6627   23.7731 C    0  0  0  0  0  0  0  0  0  0  0  0
    8.8864   12.0190   23.0571 N    0  0  0  0  0  0  0  0  0  0  0  0
    9.0568   10.6815   23.1712 C    0  0  0  0  0  0  0  0  0  0  0  0
    8.2349    9.8957   23.9747 C    0  0  0  0  0  0  0  0  0  0  0  0
    7.2330   10.5157   24.7339 C    0  0  0  0  0  0  0  0  0  0  0  0
    6.3868    9.7397   25.5458 C    0  0  0  0  0  0  0  0  0  0  0  0
    5.4194   10.3505   26.3510 C    0  0  0  0  0  0  0  0  0  0  0  0
    5.2755   11.7415   26.3291 C    0  0  0  0  0  0  0  0  0  0  0  0
    6.0896   12.5231   25.5029 C    0  0  0  0  0  0  0  0  0  0  0  0
    7.0767   11.9294   24.6778 C    0  0  0  0  0  0  0  0  0  0  0  0
    9.0252   14.8460   23.0713 N    0  0  0  0  0  0  0  0  0  0  0  0
    9.1710   15.0643   21.6065 C    0  0  0  0  0  0  0  0  0  0  0  0
   10.6104   15.3225   21.0996 C    0  0  0  0  0  0  0  0  0  0  0  0
   10.5704   15.8446   19.6723 C    0  0  0  0  0  0  0  0  0  0  0  0
   10.9008   14.9645   18.7106 N    0  0  0  0  0  0  0  0  0  0  0  0
   10.0216   16.8884   19.3830 O    0  0  0  0  0  0  0  0  0  0  0  0
   11.3436   16.2998   22.0456 C    0  0  0  0  0  0  0  0  0  0  0  0
   11.3703   15.7153   23.4705 C    0  0  0  0  0  0  0  0  0  0  0  0
   10.0279   15.1655   23.9646 C    0  0  0  0  0  0  0  0  0  0  0  0
    9.9271   14.9109   25.1457 O    0  0  0  0  0  0  0  0  0  0  0  0
    6.3383   15.5518   22.4591 H    0  0  0  0  0  0  0  0  0  0  0  0
    5.5497   14.1444   23.1356 H    0  0  0  0  0  0  0  0  0  0  0  0
    6.4895   13.9683   21.6730 H    0  0  0  0  0  0  0  0  0  0  0  0
    7.4864   14.6756   24.4419 H    0  0  0  0  0  0  0  0  0  0  0  0
    9.8455   10.2024   22.5968 H    0  0  0  0  0  0  0  0  0  0  0  0
    8.3840    8.8171   24.0069 H    0  0  0  0  0  0  0  0  0  0  0  0
    6.4800    8.6537   25.5699 H    0  0  0  0  0  0  0  0  0  0  0  0
    4.7733    9.7412   26.9817 H    0  0  0  0  0  0  0  0  0  0  0  0
    4.5200   12.2165   26.9441 H    0  0  0  0  0  0  0  0  0  0  0  0
    5.9196   13.5936   25.5194 H    0  0  0  0  0  0  0  0  0  0  0  0
    8.5349   15.9139   21.3474 H    0  0  0  0  0  0  0  0  0  0  0  0
    8.7962   14.2060   21.0491 H    0  0  0  0  0  0  0  0  0  0  0  0
   11.1525   14.3703   21.1250 H    0  0  0  0  0  0  0  0  0  0  0  0
   10.8526   15.2392   17.7432 H    0  0  0  0  0  0  0  0  0  0  0  0
   11.0720   13.9869   18.9319 H    0  0  0  0  0  0  0  0  0  0  0  0
   10.8402   17.2715   22.0669 H    0  0  0  0  0  0  0  0  0  0  0  0
   12.3625   16.4810   21.6915 H    0  0  0  0  0  0  0  0  0  0  0  0
   11.7059   16.4973   24.1608 H    0  0  0  0  0  0  0  0  0  0  0  0
   12.1218   14.9221   23.5142 H    0  0  0  0  0  0  0  0  0  0  0  0
  2  1  1  0  0  0  0
  3  2  1  0  0  0  0
  4  3  2  0  0  0  0
 23  1  1  0  0  0  0
 24  1  1  0  0  0  0
 25  1  1  0  0  0  0
 13  2  1  0  0  0  0
 26  2  1  0  0  0  0
  5  4  1  0  0  0  0
  6  5  2  0  0  0  0
 27  5  1  0  0  0  0
  7  6  1  0  0  0  0
 28  6  1  0  0  0  0
  8  7  2  0  0  0  0
  9  8  1  0  0  0  0
 29  8  1  0  0  0  0
 10  9  2  0  0  0  0
 30  9  1  0  0  0  0
 11 10  1  0  0  0  0
 31 10  1  0  0  0  0
 12 11  2  0  0  0  0
 32 11  1  0  0  0  0
 14 13  1  0  0  0  0
 15 14  1  0  0  0  0
 33 14  1  0  0  0  0
 34 14  1  0  0  0  0
 16 15  1  0  0  0  0
 19 15  1  0  0  0  0
 35 15  1  0  0  0  0
 17 16  1  0  0  0  0
 18 16  2  0  0  0  0
 36 17  1  0  0  0  0
 37 17  1  0  0  0  0
 20 19  1  0  0  0  0
 38 19  1  0  0  0  0
 39 19  1  0  0  0  0
 21 20  1  0  0  0  0
 40 20  1  0  0  0  0
 41 20  1  0  0  0  0
 22 21  2  0  0  0  0
 12  3  1  0  0  0  0
 12  7  1  0  0  0  0
 21 13  1  0  0  0  0
M  END
>  <FittedScore>
-37.38

$$$$
