A71EV2A-x7257a_best-RMSD
  FITTED

 62 64     0  0  0  0  0  0  0999 V2000
    9.1092    9.4771   23.7283 C    0  0  0  0  0  0  0  0  0  0  0  0
    8.9294   11.2798   23.9400 S    0  0  0  0  0  0  0  0  0  0  0  0
    7.4863   11.5404   24.9864 C    0  0  0  0  0  0  0  0  0  0  0  0
    7.1082   10.5222   25.8153 N    0  0  0  0  0  0  0  0  0  0  0  0
    6.0365   10.7113   26.6337 C    0  0  0  0  0  0  0  0  0  0  0  0
    5.3044   11.8535   26.6885 N    0  0  0  0  0  0  0  0  0  0  0  0
    5.6644   12.8821   25.8723 C    0  0  0  0  0  0  0  0  0  0  0  0
    4.8570   13.9924   25.9749 N    0  0  0  0  0  0  0  0  0  0  0  0
    3.6564   14.1383   25.1529 C    0  0  0  0  0  0  0  0  0  0  0  0
    3.5006   15.6515   24.9291 C    0  0  0  0  0  0  0  0  0  0  0  0
    4.6674   16.3312   25.6718 C    0  0  0  0  0  0  0  0  0  0  0  0
    5.2614   15.2542   26.6139 C    0  0  0  0  0  0  0  0  0  0  0  0
    4.7334   15.3178   28.0921 C    0  0  0  0  0  0  0  0  0  0  0  0
    5.8636   15.2970   29.1723 C    0  0  0  0  0  0  0  0  0  0  0  0
    5.2870   15.6485   30.5701 C    0  0  0  0  0  0  0  0  0  0  0  0
    6.6285   13.9429   29.2226 C    0  0  0  0  0  0  0  0  0  0  0  0
    6.7707   12.7730   24.9755 C    0  0  0  0  0  0  0  0  0  0  0  0
    7.2252   13.9346   24.0591 C    0  0  0  0  0  0  0  0  0  0  0  0
    8.4345   14.7048   24.6020 C    0  0  0  0  0  0  0  0  0  0  0  0
    8.7006   14.6051   25.7869 O    0  0  0  0  0  0  0  0  0  0  0  0
    9.2530   15.4115   23.7431 N    0  0  0  0  0  0  0  0  0  0  0  0
   10.5837   15.9472   24.1761 C    0  0  0  0  0  0  0  0  0  0  0  0
   11.7280   15.2965   23.3784 C    0  0  0  0  0  0  0  0  0  0  0  0
   11.5681   15.5830   21.8657 C    0  0  0  0  0  0  0  0  0  0  0  0
   10.1693   15.1549   21.3319 C    0  0  0  0  0  0  0  0  0  0  0  0
   10.0376   15.5992   19.8630 C    0  0  0  0  0  0  0  0  0  0  0  0
   10.6092   14.7905   18.9460 N    0  0  0  0  0  0  0  0  0  0  0  0
    9.5626   16.6541   19.4932 O    0  0  0  0  0  0  0  0  0  0  0  0
    9.0272   15.6828   22.2726 C    0  0  0  0  0  0  0  0  0  0  0  0
    9.3283    9.0068   24.6894 H    0  0  0  0  0  0  0  0  0  0  0  0
    9.9359    9.2850   23.0408 H    0  0  0  0  0  0  0  0  0  0  0  0
    8.1906    9.0505   23.3173 H    0  0  0  0  0  0  0  0  0  0  0  0
    5.7518    9.9001   27.2965 H    0  0  0  0  0  0  0  0  0  0  0  0
    2.7810   13.7304   25.6649 H    0  0  0  0  0  0  0  0  0  0  0  0
    3.7499   13.6187   24.1943 H    0  0  0  0  0  0  0  0  0  0  0  0
    2.5419   15.9985   25.3244 H    0  0  0  0  0  0  0  0  0  0  0  0
    3.5289   15.8892   23.8628 H    0  0  0  0  0  0  0  0  0  0  0  0
    4.3358   17.2338   26.1926 H    0  0  0  0  0  0  0  0  0  0  0  0
    5.4295   16.6470   24.9517 H    0  0  0  0  0  0  0  0  0  0  0  0
    6.3426   15.3869   26.6062 H    0  0  0  0  0  0  0  0  0  0  0  0
    4.0259   14.5064   28.2960 H    0  0  0  0  0  0  0  0  0  0  0  0
    4.1441   16.2281   28.2310 H    0  0  0  0  0  0  0  0  0  0  0  0
    6.5876   16.0804   28.9248 H    0  0  0  0  0  0  0  0  0  0  0  0
    6.0845   15.7212   31.3134 H    0  0  0  0  0  0  0  0  0  0  0  0
    4.5719   14.8936   30.9080 H    0  0  0  0  0  0  0  0  0  0  0  0
    4.7754   16.6142   30.5511 H    0  0  0  0  0  0  0  0  0  0  0  0
    7.3291   13.9164   30.0602 H    0  0  0  0  0  0  0  0  0  0  0  0
    7.2195   13.7871   28.3163 H    0  0  0  0  0  0  0  0  0  0  0  0
    5.9441   13.0979   29.3315 H    0  0  0  0  0  0  0  0  0  0  0  0
    6.4228   14.6448   23.8676 H    0  0  0  0  0  0  0  0  0  0  0  0
    7.4334   13.5109   23.0766 H    0  0  0  0  0  0  0  0  0  0  0  0
   10.7945   15.7933   25.2364 H    0  0  0  0  0  0  0  0  0  0  0  0
   10.6049   17.0333   24.0395 H    0  0  0  0  0  0  0  0  0  0  0  0
   11.7525   14.2165   23.5589 H    0  0  0  0  0  0  0  0  0  0  0  0
   12.6856   15.6936   23.7207 H    0  0  0  0  0  0  0  0  0  0  0  0
   12.3479   15.0393   21.3269 H    0  0  0  0  0  0  0  0  0  0  0  0
   11.7338   16.6491   21.6808 H    0  0  0  0  0  0  0  0  0  0  0  0
   10.1138   14.0597   21.3639 H    0  0  0  0  0  0  0  0  0  0  0  0
   10.9538   13.8762   19.2284 H    0  0  0  0  0  0  0  0  0  0  0  0
   10.5594   15.0286   17.9560 H    0  0  0  0  0  0  0  0  0  0  0  0
    8.0715   15.3106   21.9053 H    0  0  0  0  0  0  0  0  0  0  0  0
    8.9466   16.7700   22.1602 H    0  0  0  0  0  0  0  0  0  0  0  0
 18 19  1  0  0  0  0
 17 18  1  0  0  0  0
  7 17  2  0  0  0  0
  6  7  1  0  0  0  0
  5  6  2  0  0  0  0
  4  5  1  0  0  0  0
  3  4  2  0  0  0  0
  2  3  1  0  0  0  0
  1  2  1  0  0  0  0
 30  1  1  0  0  0  0
 31  1  1  0  0  0  0
 32  1  1  0  0  0  0
 33  5  1  0  0  0  0
  8  7  1  0  0  0  0
  9  8  1  0  0  0  0
 10  9  1  0  0  0  0
 34  9  1  0  0  0  0
 35  9  1  0  0  0  0
 11 10  1  0  0  0  0
 36 10  1  0  0  0  0
 37 10  1  0  0  0  0
 12 11  1  0  0  0  0
 38 11  1  0  0  0  0
 39 11  1  0  0  0  0
 13 12  1  0  0  0  0
 40 12  1  0  0  0  0
 14 13  1  0  0  0  0
 41 13  1  0  0  0  0
 42 13  1  0  0  0  0
 15 14  1  0  0  0  0
 16 14  1  0  0  0  0
 43 14  1  0  0  0  0
 44 15  1  0  0  0  0
 45 15  1  0  0  0  0
 46 15  1  0  0  0  0
 47 16  1  0  0  0  0
 48 16  1  0  0  0  0
 49 16  1  0  0  0  0
 50 18  1  0  0  0  0
 51 18  1  0  0  0  0
 20 19  2  0  0  0  0
 21 19  1  0  0  0  0
 22 21  1  0  0  0  0
 23 22  1  0  0  0  0
 52 22  1  0  0  0  0
 53 22  1  0  0  0  0
 24 23  1  0  0  0  0
 54 23  1  0  0  0  0
 55 23  1  0  0  0  0
 25 24  1  0  0  0  0
 56 24  1  0  0  0  0
 57 24  1  0  0  0  0
 26 25  1  0  0  0  0
 29 25  1  0  0  0  0
 58 25  1  0  0  0  0
 27 26  1  0  0  0  0
 28 26  2  0  0  0  0
 59 27  1  0  0  0  0
 60 27  1  0  0  0  0
 61 29  1  0  0  0  0
 62 29  1  0  0  0  0
 12  8  1  0  0  0  0
 17  3  1  0  0  0  0
 29 21  1  0  0  0  0
M  END
>  <FittedScore>
-27.46

$$$$
