A71EV2A-x7257a_lowest-energy
  FITTED

 62 64     0  0  0  0  0  0  0999 V2000
    9.5147    8.9025   23.3489 C    0  0  0  0  0  0  0  0  0  0  0  0
    9.3551   10.6084   23.9617 S    0  0  0  0  0  0  0  0  0  0  0  0
    7.8714   10.6431   24.9654 C    0  0  0  0  0  0  0  0  0  0  0  0
    7.3139    9.4373   25.2722 N    0  0  0  0  0  0  0  0  0  0  0  0
    6.2301    9.4184   26.0833 C    0  0  0  0  0  0  0  0  0  0  0  0
    5.6291   10.5181   26.5870 N    0  0  0  0  0  0  0  0  0  0  0  0
    6.1196   11.7469   26.2441 C    0  0  0  0  0  0  0  0  0  0  0  0
    5.4205   12.8342   26.7534 N    0  0  0  0  0  0  0  0  0  0  0  0
    5.9288   13.5331   27.9438 C    0  0  0  0  0  0  0  0  0  0  0  0
    4.7457   13.6250   28.9206 C    0  0  0  0  0  0  0  0  0  0  0  0
    3.4925   13.2084   28.1329 C    0  0  0  0  0  0  0  0  0  0  0  0
    3.9399   12.9396   26.6697 C    0  0  0  0  0  0  0  0  0  0  0  0
    3.5112   14.0478   25.6498 C    0  0  0  0  0  0  0  0  0  0  0  0
    2.1518   13.7604   24.9178 C    0  0  0  0  0  0  0  0  0  0  0  0
    0.9200   13.7116   25.8685 C    0  0  0  0  0  0  0  0  0  0  0  0
    1.9075   14.7902   23.7832 C    0  0  0  0  0  0  0  0  0  0  0  0
    7.2954   11.8638   25.4339 C    0  0  0  0  0  0  0  0  0  0  0  0
    7.9631   13.2232   25.1003 C    0  0  0  0  0  0  0  0  0  0  0  0
    7.9682   13.6291   23.6144 C    0  0  0  0  0  0  0  0  0  0  0  0
    7.2869   12.9952   22.8301 O    0  0  0  0  0  0  0  0  0  0  0  0
    8.7540   14.6810   23.1765 N    0  0  0  0  0  0  0  0  0  0  0  0
    9.6754   15.5270   24.0125 C    0  0  0  0  0  0  0  0  0  0  0  0
   11.1419   15.5243   23.4938 C    0  0  0  0  0  0  0  0  0  0  0  0
   11.2285   15.9467   22.0014 C    0  0  0  0  0  0  0  0  0  0  0  0
   10.2145   15.1482   21.1271 C    0  0  0  0  0  0  0  0  0  0  0  0
   10.2390   15.6498   19.6791 C    0  0  0  0  0  0  0  0  0  0  0  0
   10.7689   14.7983   18.7773 N    0  0  0  0  0  0  0  0  0  0  0  0
    9.7322   16.6965   19.3146 O    0  0  0  0  0  0  0  0  0  0  0  0
    8.7785   15.1651   21.7506 C    0  0  0  0  0  0  0  0  0  0  0  0
    8.6240    8.6367   22.7743 H    0  0  0  0  0  0  0  0  0  0  0  0
    9.6414    8.2171   24.1886 H    0  0  0  0  0  0  0  0  0  0  0  0
   10.3867    8.8293   22.6973 H    0  0  0  0  0  0  0  0  0  0  0  0
    5.8159    8.4487   26.3442 H    0  0  0  0  0  0  0  0  0  0  0  0
    6.2731   14.5389   27.6899 H    0  0  0  0  0  0  0  0  0  0  0  0
    6.7680   13.0123   28.4155 H    0  0  0  0  0  0  0  0  0  0  0  0
    4.6361   14.6411   29.3130 H    0  0  0  0  0  0  0  0  0  0  0  0
    4.8969   12.9565   29.7739 H    0  0  0  0  0  0  0  0  0  0  0  0
    2.7203   13.9795   28.2157 H    0  0  0  0  0  0  0  0  0  0  0  0
    3.0726   12.2952   28.5677 H    0  0  0  0  0  0  0  0  0  0  0  0
    3.4770   12.0010   26.3514 H    0  0  0  0  0  0  0  0  0  0  0  0
    4.2909   14.1311   24.8839 H    0  0  0  0  0  0  0  0  0  0  0  0
    3.4822   15.0280   26.1372 H    0  0  0  0  0  0  0  0  0  0  0  0
    2.2318   12.7817   24.4346 H    0  0  0  0  0  0  0  0  0  0  0  0
    0.8551   14.6137   26.4829 H    0  0  0  0  0  0  0  0  0  0  0  0
    0.9610   12.8473   26.5360 H    0  0  0  0  0  0  0  0  0  0  0  0
   -0.0128   13.6245   25.3053 H    0  0  0  0  0  0  0  0  0  0  0  0
    2.7557   14.8312   23.0956 H    0  0  0  0  0  0  0  0  0  0  0  0
    1.7524   15.7944   24.1866 H    0  0  0  0  0  0  0  0  0  0  0  0
    1.0308   14.5191   23.1907 H    0  0  0  0  0  0  0  0  0  0  0  0
    8.9821   13.1567   25.4889 H    0  0  0  0  0  0  0  0  0  0  0  0
    7.5053   14.0488   25.6409 H    0  0  0  0  0  0  0  0  0  0  0  0
    9.6984   15.2397   25.0621 H    0  0  0  0  0  0  0  0  0  0  0  0
    9.3027   16.5572   24.0189 H    0  0  0  0  0  0  0  0  0  0  0  0
   11.5759   14.5262   23.6160 H    0  0  0  0  0  0  0  0  0  0  0  0
   11.7447   16.2075   24.0958 H    0  0  0  0  0  0  0  0  0  0  0  0
   12.2437   15.7696   21.6350 H    0  0  0  0  0  0  0  0  0  0  0  0
   11.0392   17.0211   21.9131 H    0  0  0  0  0  0  0  0  0  0  0  0
   10.5383   14.0996   21.1487 H    0  0  0  0  0  0  0  0  0  0  0  0
   10.7421   15.0269   17.7895 H    0  0  0  0  0  0  0  0  0  0  0  0
   10.9852   13.8427   19.0613 H    0  0  0  0  0  0  0  0  0  0  0  0
    8.1201   14.5830   21.0993 H    0  0  0  0  0  0  0  0  0  0  0  0
    8.3722   16.1826   21.7212 H    0  0  0  0  0  0  0  0  0  0  0  0
 18 19  1  0  0  0  0
 17 18  1  0  0  0  0
  7 17  2  0  0  0  0
  6  7  1  0  0  0  0
  5  6  2  0  0  0  0
  4  5  1  0  0  0  0
  3  4  2  0  0  0  0
  2  3  1  0  0  0  0
  1  2  1  0  0  0  0
 30  1  1  0  0  0  0
 31  1  1  0  0  0  0
 32  1  1  0  0  0  0
 33  5  1  0  0  0  0
  8  7  1  0  0  0  0
  9  8  1  0  0  0  0
 10  9  1  0  0  0  0
 34  9  1  0  0  0  0
 35  9  1  0  0  0  0
 11 10  1  0  0  0  0
 36 10  1  0  0  0  0
 37 10  1  0  0  0  0
 12 11  1  0  0  0  0
 38 11  1  0  0  0  0
 39 11  1  0  0  0  0
 13 12  1  0  0  0  0
 40 12  1  0  0  0  0
 14 13  1  0  0  0  0
 41 13  1  0  0  0  0
 42 13  1  0  0  0  0
 15 14  1  0  0  0  0
 16 14  1  0  0  0  0
 43 14  1  0  0  0  0
 44 15  1  0  0  0  0
 45 15  1  0  0  0  0
 46 15  1  0  0  0  0
 47 16  1  0  0  0  0
 48 16  1  0  0  0  0
 49 16  1  0  0  0  0
 50 18  1  0  0  0  0
 51 18  1  0  0  0  0
 20 19  2  0  0  0  0
 21 19  1  0  0  0  0
 22 21  1  0  0  0  0
 23 22  1  0  0  0  0
 52 22  1  0  0  0  0
 53 22  1  0  0  0  0
 24 23  1  0  0  0  0
 54 23  1  0  0  0  0
 55 23  1  0  0  0  0
 25 24  1  0  0  0  0
 56 24  1  0  0  0  0
 57 24  1  0  0  0  0
 26 25  1  0  0  0  0
 29 25  1  0  0  0  0
 58 25  1  0  0  0  0
 27 26  1  0  0  0  0
 28 26  2  0  0  0  0
 59 27  1  0  0  0  0
 60 27  1  0  0  0  0
 61 29  1  0  0  0  0
 62 29  1  0  0  0  0
 12  8  1  0  0  0  0
 17  3  1  0  0  0  0
 29 21  1  0  0  0  0
M  END
>  <FittedScore>
-33.58

$$$$
