A71EV2A-x3480a_lowest-energy
  FITTED

 39 40     0  0  0  0  0  0  0999 V2000
    9.7133   16.5068   19.2367 O    0  0  0  0  0  0  0  0  0  0  0  0
   10.3385   15.5266   19.5900 C    0  0  0  0  0  0  0  0  0  0  0  0
   10.8869   14.7041   18.6805 N    0  0  0  0  0  0  0  0  0  0  0  0
   10.3925   15.0295   21.0299 C    0  0  0  0  0  0  0  0  0  0  0  0
   11.4332   15.8110   21.8715 C    0  0  0  0  0  0  0  0  0  0  0  0
   11.4509   15.2703   23.3220 C    0  0  0  0  0  0  0  0  0  0  0  0
   10.0361   15.1667   23.9581 C    0  0  0  0  0  0  0  0  0  0  0  0
    8.9970   15.0668   21.7040 C    0  0  0  0  0  0  0  0  0  0  0  0
    9.0001   14.5107   23.0917 N    0  0  0  0  0  0  0  0  0  0  0  0
    8.1147   13.5377   23.4785 C    0  0  0  0  0  0  0  0  0  0  0  0
    7.4195   12.9475   22.6837 O    0  0  0  0  0  0  0  0  0  0  0  0
    7.9380   13.3432   24.8066 N    0  0  0  0  0  0  0  0  0  0  0  0
    7.1734   12.3239   25.4585 C    0  0  0  0  0  0  0  0  0  0  0  0
    7.4346   10.9690   25.1974 C    0  0  0  0  0  0  0  0  0  0  0  0
    6.6984    9.9809   25.8541 C    0  0  0  0  0  0  0  0  0  0  0  0
    5.7094   10.3298   26.7854 C    0  0  0  0  0  0  0  0  0  0  0  0
    6.1746   12.6754   26.3828 C    0  0  0  0  0  0  0  0  0  0  0  0
    5.4284   11.6820   27.0492 C    0  0  0  0  0  0  0  0  0  0  0  0
    4.3110   12.0641   28.0205 C    0  0  0  0  0  0  0  0  0  0  0  0
    3.1274   12.5064   27.2618 C    0  0  0  0  0  0  0  0  0  0  0  0
    2.2405   12.8356   26.6268 N    0  0  0  0  0  0  0  0  0  0  0  0
   10.8383   14.9324   17.6953 H    0  0  0  0  0  0  0  0  0  0  0  0
   11.1571   13.7645   18.9682 H    0  0  0  0  0  0  0  0  0  0  0  0
   10.7064   13.9754   21.0371 H    0  0  0  0  0  0  0  0  0  0  0  0
   12.4275   15.7030   21.4311 H    0  0  0  0  0  0  0  0  0  0  0  0
   11.1970   16.8776   21.8754 H    0  0  0  0  0  0  0  0  0  0  0  0
   11.9323   14.2886   23.3380 H    0  0  0  0  0  0  0  0  0  0  0  0
   12.0699   15.9285   23.9373 H    0  0  0  0  0  0  0  0  0  0  0  0
   10.1721   14.6423   24.9060 H    0  0  0  0  0  0  0  0  0  0  0  0
    9.6824   16.1705   24.2148 H    0  0  0  0  0  0  0  0  0  0  0  0
    8.2981   14.5510   21.0371 H    0  0  0  0  0  0  0  0  0  0  0  0
    8.6307   16.0973   21.7533 H    0  0  0  0  0  0  0  0  0  0  0  0
    8.2501   14.0765   25.4317 H    0  0  0  0  0  0  0  0  0  0  0  0
    8.2087   10.6802   24.4886 H    0  0  0  0  0  0  0  0  0  0  0  0
    6.9021    8.9328   25.6467 H    0  0  0  0  0  0  0  0  0  0  0  0
    5.1487    9.5388   27.2821 H    0  0  0  0  0  0  0  0  0  0  0  0
    5.9738   13.7260   26.5792 H    0  0  0  0  0  0  0  0  0  0  0  0
    4.0264   11.2237   28.6599 H    0  0  0  0  0  0  0  0  0  0  0  0
    4.6373   12.8678   28.6856 H    0  0  0  0  0  0  0  0  0  0  0  0
  9 10  1  0  0  0  0
  7  9  1  0  0  0  0
  6  7  1  0  0  0  0
  5  6  1  0  0  0  0
  4  5  1  0  0  0  0
  2  4  1  0  0  0  0
  1  2  2  0  0  0  0
  3  2  1  0  0  0  0
 22  3  1  0  0  0  0
 23  3  1  0  0  0  0
 24  4  1  0  0  0  0
 25  5  1  0  0  0  0
 26  5  1  0  0  0  0
 27  6  1  0  0  0  0
 28  6  1  0  0  0  0
 29  7  1  0  0  0  0
 30  7  1  0  0  0  0
  8  4  1  0  0  0  0
 31  8  1  0  0  0  0
 32  8  1  0  0  0  0
 11 10  2  0  0  0  0
 12 10  1  0  0  0  0
 33 12  1  0  0  0  0
 13 12  1  0  0  0  0
 14 13  1  0  0  0  0
 34 14  1  0  0  0  0
 15 14  2  0  0  0  0
 35 15  1  0  0  0  0
 16 15  1  0  0  0  0
 36 16  1  0  0  0  0
 17 13  2  0  0  0  0
 37 17  1  0  0  0  0
 18 16  2  0  0  0  0
 19 18  1  0  0  0  0
 38 19  1  0  0  0  0
 39 19  1  0  0  0  0
 20 19  1  0  0  0  0
 21 20  3  0  0  0  0
  9  8  1  0  0  0  0
 18 17  1  0  0  0  0
M  END
>  <FittedScore>
-33.78

$$$$
