A71EV2A-x3480a_best-RMSD
  FITTED

 39 40     0  0  0  0  0  0  0999 V2000
    9.6645   16.4658   19.2220 O    0  0  0  0  0  0  0  0  0  0  0  0
   10.3141   15.5099   19.5975 C    0  0  0  0  0  0  0  0  0  0  0  0
   10.8995   14.6873   18.7058 N    0  0  0  0  0  0  0  0  0  0  0  0
   10.3744   15.0515   21.0516 C    0  0  0  0  0  0  0  0  0  0  0  0
   11.3660   15.8997   21.8867 C    0  0  0  0  0  0  0  0  0  0  0  0
   11.4571   15.3143   23.3176 C    0  0  0  0  0  0  0  0  0  0  0  0
   10.0690   15.1006   23.9901 C    0  0  0  0  0  0  0  0  0  0  0  0
    8.9825   15.0427   21.7410 C    0  0  0  0  0  0  0  0  0  0  0  0
    9.0170   14.4614   23.1252 N    0  0  0  0  0  0  0  0  0  0  0  0
    8.1303   13.4925   23.5229 C    0  0  0  0  0  0  0  0  0  0  0  0
    7.3975   12.9336   22.7400 O    0  0  0  0  0  0  0  0  0  0  0  0
    7.9552   13.3077   24.8545 N    0  0  0  0  0  0  0  0  0  0  0  0
    7.1410   12.3310   25.5169 C    0  0  0  0  0  0  0  0  0  0  0  0
    7.3343   10.9604   25.2828 C    0  0  0  0  0  0  0  0  0  0  0  0
    6.5577   10.0233   25.9763 C    0  0  0  0  0  0  0  0  0  0  0  0
    5.5825   10.4433   26.8939 C    0  0  0  0  0  0  0  0  0  0  0  0
    6.1667   12.7504   26.4398 C    0  0  0  0  0  0  0  0  0  0  0  0
    5.3633   11.8145   27.1203 C    0  0  0  0  0  0  0  0  0  0  0  0
    4.2683   12.2825   28.0811 C    0  0  0  0  0  0  0  0  0  0  0  0
    3.0184   12.5406   27.3457 C    0  0  0  0  0  0  0  0  0  0  0  0
    2.0751   12.7508   26.7447 N    0  0  0  0  0  0  0  0  0  0  0  0
   10.8825   14.9131   17.7196 H    0  0  0  0  0  0  0  0  0  0  0  0
   11.1932   13.7556   19.0016 H    0  0  0  0  0  0  0  0  0  0  0  0
   10.7322   14.0148   21.0722 H    0  0  0  0  0  0  0  0  0  0  0  0
   12.3556   15.8881   21.4213 H    0  0  0  0  0  0  0  0  0  0  0  0
   11.0447   16.9452   21.9282 H    0  0  0  0  0  0  0  0  0  0  0  0
   11.9974   14.3633   23.2834 H    0  0  0  0  0  0  0  0  0  0  0  0
   12.0558   15.9870   23.9370 H    0  0  0  0  0  0  0  0  0  0  0  0
   10.2638   14.5047   24.8841 H    0  0  0  0  0  0  0  0  0  0  0  0
    9.6868   16.0617   24.3438 H    0  0  0  0  0  0  0  0  0  0  0  0
    8.2922   14.5178   21.0732 H    0  0  0  0  0  0  0  0  0  0  0  0
    8.5857   16.0602   21.8083 H    0  0  0  0  0  0  0  0  0  0  0  0
    8.2954   14.0397   25.4679 H    0  0  0  0  0  0  0  0  0  0  0  0
    8.0859   10.6238   24.5705 H    0  0  0  0  0  0  0  0  0  0  0  0
    6.7059    8.9614   25.7970 H    0  0  0  0  0  0  0  0  0  0  0  0
    4.9805    9.6982   27.4090 H    0  0  0  0  0  0  0  0  0  0  0  0
    6.0139   13.8161   26.6032 H    0  0  0  0  0  0  0  0  0  0  0  0
    4.0716   11.5432   28.8637 H    0  0  0  0  0  0  0  0  0  0  0  0
    4.5683   13.2004   28.5940 H    0  0  0  0  0  0  0  0  0  0  0  0
  9 10  1  0  0  0  0
  7  9  1  0  0  0  0
  6  7  1  0  0  0  0
  5  6  1  0  0  0  0
  4  5  1  0  0  0  0
  2  4  1  0  0  0  0
  1  2  2  0  0  0  0
  3  2  1  0  0  0  0
 22  3  1  0  0  0  0
 23  3  1  0  0  0  0
 24  4  1  0  0  0  0
 25  5  1  0  0  0  0
 26  5  1  0  0  0  0
 27  6  1  0  0  0  0
 28  6  1  0  0  0  0
 29  7  1  0  0  0  0
 30  7  1  0  0  0  0
  8  4  1  0  0  0  0
 31  8  1  0  0  0  0
 32  8  1  0  0  0  0
 11 10  2  0  0  0  0
 12 10  1  0  0  0  0
 33 12  1  0  0  0  0
 13 12  1  0  0  0  0
 14 13  1  0  0  0  0
 34 14  1  0  0  0  0
 15 14  2  0  0  0  0
 35 15  1  0  0  0  0
 16 15  1  0  0  0  0
 36 16  1  0  0  0  0
 17 13  2  0  0  0  0
 37 17  1  0  0  0  0
 18 16  2  0  0  0  0
 19 18  1  0  0  0  0
 38 19  1  0  0  0  0
 39 19  1  0  0  0  0
 20 19  1  0  0  0  0
 21 20  3  0  0  0  0
  9  8  1  0  0  0  0
 18 17  1  0  0  0  0
M  END
>  <FittedScore>
-33.07

$$$$
