A71EV2A-x5462a_lowest-energy
  FITTED

 39 41     0  0  0  0  0  0  0999 V2000
    9.3139   11.9375   23.5627 C    0  0  0  0  0  0  0  0  0  0  0  0
    8.0659   12.1459   24.4339 C    0  0  0  0  0  0  0  0  0  0  0  0
    7.6537   11.0011   25.1468 C    0  0  0  0  0  0  0  0  0  0  0  0
    6.4928   10.9944   25.9178 C    0  0  0  0  0  0  0  0  0  0  0  0
    5.6877   12.1277   25.9584 C    0  0  0  0  0  0  0  0  0  0  0  0
    6.0587   13.2878   25.2597 C    0  0  0  0  0  0  0  0  0  0  0  0
    5.1789   14.3841   25.3115 C    0  0  0  0  0  0  0  0  0  0  0  0
    5.5052   15.5807   24.6788 C    0  0  0  0  0  0  0  0  0  0  0  0
    6.7244   15.7063   24.0178 C    0  0  0  0  0  0  0  0  0  0  0  0
    7.6333   14.6274   23.9473 C    0  0  0  0  0  0  0  0  0  0  0  0
    8.9168   14.9664   23.3629 N    0  0  0  0  0  0  0  0  0  0  0  0
    8.9306   15.1882   21.8892 C    0  0  0  0  0  0  0  0  0  0  0  0
   10.3404   15.2287   21.2299 C    0  0  0  0  0  0  0  0  0  0  0  0
   10.2645   15.7173   19.7813 C    0  0  0  0  0  0  0  0  0  0  0  0
   10.6092   14.8052   18.8495 N    0  0  0  0  0  0  0  0  0  0  0  0
    9.7645   16.7811   19.4547 O    0  0  0  0  0  0  0  0  0  0  0  0
   11.3081   16.0926   22.0805 C    0  0  0  0  0  0  0  0  0  0  0  0
   11.3749   15.5404   23.5289 C    0  0  0  0  0  0  0  0  0  0  0  0
   10.0287   15.1664   24.1528 C    0  0  0  0  0  0  0  0  0  0  0  0
    9.9902   14.9980   25.3581 O    0  0  0  0  0  0  0  0  0  0  0  0
    7.2896   13.3552   24.5236 C    0  0  0  0  0  0  0  0  0  0  0  0
    9.5644   10.8830   23.4206 H    0  0  0  0  0  0  0  0  0  0  0  0
   10.1900   12.4074   24.0105 H    0  0  0  0  0  0  0  0  0  0  0  0
    9.1684   12.3294   22.5550 H    0  0  0  0  0  0  0  0  0  0  0  0
    8.2376   10.0843   25.1093 H    0  0  0  0  0  0  0  0  0  0  0  0
    6.2008   10.0989   26.4605 H    0  0  0  0  0  0  0  0  0  0  0  0
    4.7666   12.0921   26.5376 H    0  0  0  0  0  0  0  0  0  0  0  0
    4.2321   14.3158   25.8456 H    0  0  0  0  0  0  0  0  0  0  0  0
    4.8209   16.4242   24.7187 H    0  0  0  0  0  0  0  0  0  0  0  0
    6.9659   16.6685   23.5716 H    0  0  0  0  0  0  0  0  0  0  0  0
    8.4162   16.1318   21.6843 H    0  0  0  0  0  0  0  0  0  0  0  0
    8.3431   14.4062   21.3996 H    0  0  0  0  0  0  0  0  0  0  0  0
   10.7292   14.2029   21.2487 H    0  0  0  0  0  0  0  0  0  0  0  0
   10.5601   15.0396   17.8669 H    0  0  0  0  0  0  0  0  0  0  0  0
   10.8278   13.8424   19.1062 H    0  0  0  0  0  0  0  0  0  0  0  0
   10.9676   17.1352   22.1031 H    0  0  0  0  0  0  0  0  0  0  0  0
   12.3105   16.0871   21.6397 H    0  0  0  0  0  0  0  0  0  0  0  0
   11.8451   16.2924   24.1713 H    0  0  0  0  0  0  0  0  0  0  0  0
   12.0209   14.6562   23.5514 H    0  0  0  0  0  0  0  0  0  0  0  0
 10 11  1  0  0  0  0
  9 10  1  0  0  0  0
  8  9  2  0  0  0  0
  7  8  1  0  0  0  0
  6  7  2  0  0  0  0
  5  6  1  0  0  0  0
  4  5  2  0  0  0  0
  3  4  1  0  0  0  0
  2  3  2  0  0  0  0
  1  2  1  0  0  0  0
 22  1  1  0  0  0  0
 23  1  1  0  0  0  0
 24  1  1  0  0  0  0
 25  3  1  0  0  0  0
 26  4  1  0  0  0  0
 27  5  1  0  0  0  0
 28  7  1  0  0  0  0
 29  8  1  0  0  0  0
 30  9  1  0  0  0  0
 21 10  2  0  0  0  0
 12 11  1  0  0  0  0
 13 12  1  0  0  0  0
 31 12  1  0  0  0  0
 32 12  1  0  0  0  0
 14 13  1  0  0  0  0
 17 13  1  0  0  0  0
 33 13  1  0  0  0  0
 15 14  1  0  0  0  0
 16 14  2  0  0  0  0
 34 15  1  0  0  0  0
 35 15  1  0  0  0  0
 18 17  1  0  0  0  0
 36 17  1  0  0  0  0
 37 17  1  0  0  0  0
 19 18  1  0  0  0  0
 38 18  1  0  0  0  0
 39 18  1  0  0  0  0
 20 19  2  0  0  0  0
 19 11  1  0  0  0  0
 21  2  1  0  0  0  0
 21  6  1  0  0  0  0
M  END
>  <FittedScore>
-33.59

$$$$
