A71EV2A-x6794a_lowest-energy
  FITTED

 54 57     0  0  0  0  0  0  0999 V2000
    9.0643    8.6138   23.5729 C    0  0  0  0  0  0  0  0  0  0  0  0
    9.2094   10.3054   24.2196 S    0  0  0  0  0  0  0  0  0  0  0  0
    7.7196   10.7523   25.1420 C    0  0  0  0  0  0  0  0  0  0  0  0
    6.8649    9.7314   25.5888 C    0  0  0  0  0  0  0  0  0  0  0  0
    5.7198   10.0257   26.3213 C    0  0  0  0  0  0  0  0  0  0  0  0
    5.3781   11.3507   26.5742 C    0  0  0  0  0  0  0  0  0  0  0  0
    6.1888   12.4296   26.1499 C    0  0  0  0  0  0  0  0  0  0  0  0
    5.7052   13.7504   26.4036 C    0  0  0  0  0  0  0  0  0  0  0  0
    5.7495   15.0654   25.1919 S    0  0  0  0  0  0  0  0  0  0  0  0
    4.8002   16.1093   26.2381 C    0  0  0  0  0  0  0  0  0  0  0  0
    4.5119   15.4993   27.4420 C    0  0  0  0  0  0  0  0  0  0  0  0
    5.0292   14.2095   27.5614 C    0  0  0  0  0  0  0  0  0  0  0  0
    4.8548   13.4649   28.8629 C    0  0  0  0  0  0  0  0  0  0  0  0
    5.3769   14.1459   30.1049 C    0  0  0  0  0  0  0  0  0  0  0  0
    6.1300   12.9961   29.5154 C    0  0  0  0  0  0  0  0  0  0  0  0
    7.4074   12.1174   25.4476 C    0  0  0  0  0  0  0  0  0  0  0  0
    8.4577   13.2051   25.1023 C    0  0  0  0  0  0  0  0  0  0  0  0
    8.4250   13.6661   23.6294 C    0  0  0  0  0  0  0  0  0  0  0  0
    7.8625   12.9712   22.8025 O    0  0  0  0  0  0  0  0  0  0  0  0
    9.0621   14.8275   23.2388 N    0  0  0  0  0  0  0  0  0  0  0  0
    9.9256   15.7171   24.0884 C    0  0  0  0  0  0  0  0  0  0  0  0
   11.3614   15.9278   23.5172 C    0  0  0  0  0  0  0  0  0  0  0  0
   11.3608   16.3641   22.0245 C    0  0  0  0  0  0  0  0  0  0  0  0
   10.4314   15.4329   21.1896 C    0  0  0  0  0  0  0  0  0  0  0  0
   10.3830   15.8495   19.7185 C    0  0  0  0  0  0  0  0  0  0  0  0
   10.8317   14.9245   18.8504 N    0  0  0  0  0  0  0  0  0  0  0  0
    9.8012   16.8406   19.3112 O    0  0  0  0  0  0  0  0  0  0  0  0
    9.0123   15.3594   21.8350 C    0  0  0  0  0  0  0  0  0  0  0  0
    9.0646    7.8869   24.3864 H    0  0  0  0  0  0  0  0  0  0  0  0
    9.9223    8.4092   22.9324 H    0  0  0  0  0  0  0  0  0  0  0  0
    8.1532    8.5101   22.9770 H    0  0  0  0  0  0  0  0  0  0  0  0
    7.0746    8.6856   25.3958 H    0  0  0  0  0  0  0  0  0  0  0  0
    5.0720    9.2236   26.6680 H    0  0  0  0  0  0  0  0  0  0  0  0
    4.4252   11.5192   27.0656 H    0  0  0  0  0  0  0  0  0  0  0  0
    4.4900   17.1159   25.9660 H    0  0  0  0  0  0  0  0  0  0  0  0
    3.9380   15.9916   28.2274 H    0  0  0  0  0  0  0  0  0  0  0  0
    3.9769   12.8452   29.0289 H    0  0  0  0  0  0  0  0  0  0  0  0
    4.8440   13.9713   31.0349 H    0  0  0  0  0  0  0  0  0  0  0  0
    5.8319   15.1310   30.0309 H    0  0  0  0  0  0  0  0  0  0  0  0
    6.1046   12.0433   30.0343 H    0  0  0  0  0  0  0  0  0  0  0  0
    7.0806   13.2130   29.0344 H    0  0  0  0  0  0  0  0  0  0  0  0
    9.4645   12.8589   25.3428 H    0  0  0  0  0  0  0  0  0  0  0  0
    8.3380   14.0438   25.7858 H    0  0  0  0  0  0  0  0  0  0  0  0
   10.0510   15.3422   25.1006 H    0  0  0  0  0  0  0  0  0  0  0  0
    9.4356   16.6916   24.1956 H    0  0  0  0  0  0  0  0  0  0  0  0
   11.9354   14.9999   23.6224 H    0  0  0  0  0  0  0  0  0  0  0  0
   11.8809   16.6843   24.1107 H    0  0  0  0  0  0  0  0  0  0  0  0
   12.3801   16.3263   21.6269 H    0  0  0  0  0  0  0  0  0  0  0  0
   11.0277   17.4032   21.9414 H    0  0  0  0  0  0  0  0  0  0  0  0
   10.8536   14.4213   21.2638 H    0  0  0  0  0  0  0  0  0  0  0  0
   10.7822   15.1037   17.8555 H    0  0  0  0  0  0  0  0  0  0  0  0
   11.0700   13.9879   19.1718 H    0  0  0  0  0  0  0  0  0  0  0  0
    8.3649   14.7723   21.1774 H    0  0  0  0  0  0  0  0  0  0  0  0
    8.5585   16.3565   21.8441 H    0  0  0  0  0  0  0  0  0  0  0  0
 16 17  1  0  0  0  0
  7 16  2  0  0  0  0
  6  7  1  0  0  0  0
  5  6  2  0  0  0  0
  4  5  1  0  0  0  0
  3  4  2  0  0  0  0
  2  3  1  0  0  0  0
  1  2  1  0  0  0  0
 29  1  1  0  0  0  0
 30  1  1  0  0  0  0
 31  1  1  0  0  0  0
 32  4  1  0  0  0  0
 33  5  1  0  0  0  0
 34  6  1  0  0  0  0
  8  7  1  0  0  0  0
  9  8  1  0  0  0  0
 10  9  1  0  0  0  0
 11 10  2  0  0  0  0
 35 10  1  0  0  0  0
 12 11  1  0  0  0  0
 36 11  1  0  0  0  0
 13 12  1  0  0  0  0
 14 13  1  0  0  0  0
 37 13  1  0  0  0  0
 15 14  1  0  0  0  0
 38 14  1  0  0  0  0
 39 14  1  0  0  0  0
 40 15  1  0  0  0  0
 41 15  1  0  0  0  0
 18 17  1  0  0  0  0
 42 17  1  0  0  0  0
 43 17  1  0  0  0  0
 19 18  2  0  0  0  0
 20 18  1  0  0  0  0
 21 20  1  0  0  0  0
 22 21  1  0  0  0  0
 44 21  1  0  0  0  0
 45 21  1  0  0  0  0
 23 22  1  0  0  0  0
 46 22  1  0  0  0  0
 47 22  1  0  0  0  0
 24 23  1  0  0  0  0
 48 23  1  0  0  0  0
 49 23  1  0  0  0  0
 25 24  1  0  0  0  0
 28 24  1  0  0  0  0
 50 24  1  0  0  0  0
 26 25  1  0  0  0  0
 27 25  2  0  0  0  0
 51 26  1  0  0  0  0
 52 26  1  0  0  0  0
 53 28  1  0  0  0  0
 54 28  1  0  0  0  0
 12  8  2  0  0  0  0
 15 13  1  0  0  0  0
 16  3  1  0  0  0  0
 28 20  1  0  0  0  0
M  END
>  <FittedScore>
-34.90

$$$$
