A71EV2A-x5389a_best-RMSD
  FITTED

 44 46     0  0  0  0  0  0  0999 V2000
    9.8639   16.6908   19.3408 O    0  0  0  0  0  0  0  0  0  0  0  0
   10.2621   15.5959   19.6844 C    0  0  0  0  0  0  0  0  0  0  0  0
   10.7930   14.7439   18.7846 N    0  0  0  0  0  0  0  0  0  0  0  0
   10.1400   15.0475   21.1027 C    0  0  0  0  0  0  0  0  0  0  0  0
   11.3047   15.5285   22.0133 C    0  0  0  0  0  0  0  0  0  0  0  0
   11.1912   14.8871   23.4217 C    0  0  0  0  0  0  0  0  0  0  0  0
    9.7729   15.0518   24.0318 C    0  0  0  0  0  0  0  0  0  0  0  0
    8.7715   15.3539   21.7696 C    0  0  0  0  0  0  0  0  0  0  0  0
    8.6375   14.6972   23.1051 N    0  0  0  0  0  0  0  0  0  0  0  0
    7.5920   13.8406   23.3972 C    0  0  0  0  0  0  0  0  0  0  0  0
    6.9732   13.2667   22.5132 O    0  0  0  0  0  0  0  0  0  0  0  0
    7.3082   13.5606   24.7163 N    0  0  0  0  0  0  0  0  0  0  0  0
    6.8951   12.2176   25.1409 C    0  0  0  0  0  0  0  0  0  0  0  0
    7.5996   11.0570   24.7012 C    0  0  0  0  0  0  0  0  0  0  0  0
    8.7357   11.1935   23.8961 O    0  0  0  0  0  0  0  0  0  0  0  0
    9.4848   10.1212   23.2692 C    0  0  0  0  0  0  0  0  0  0  0  0
    7.0642   14.6867   25.6758 C    0  0  0  0  0  0  0  0  0  0  0  0
    5.5601   14.8607   25.9259 C    0  0  0  0  0  0  0  0  0  0  0  0
    4.8121   13.3912   26.6808 S    0  0  0  0  0  0  0  0  0  0  0  0
    5.7720   12.0435   26.0046 C    0  0  0  0  0  0  0  0  0  0  0  0
    5.3588   10.7616   26.3932 C    0  0  0  0  0  0  0  0  0  0  0  0
    6.0448    9.6375   25.9455 C    0  0  0  0  0  0  0  0  0  0  0  0
    7.1527    9.7802   25.1099 C    0  0  0  0  0  0  0  0  0  0  0  0
   10.8878   15.0227   17.8159 H    0  0  0  0  0  0  0  0  0  0  0  0
   10.9837   13.7802   19.0523 H    0  0  0  0  0  0  0  0  0  0  0  0
   10.2052   13.9512   21.0479 H    0  0  0  0  0  0  0  0  0  0  0  0
   12.2648   15.2526   21.5724 H    0  0  0  0  0  0  0  0  0  0  0  0
   11.2870   16.6175   22.1017 H    0  0  0  0  0  0  0  0  0  0  0  0
   11.4443   13.8235   23.3586 H    0  0  0  0  0  0  0  0  0  0  0  0
   11.9263   15.3446   24.0881 H    0  0  0  0  0  0  0  0  0  0  0  0
    9.7590   14.4269   24.9289 H    0  0  0  0  0  0  0  0  0  0  0  0
    9.6445   16.0839   24.3702 H    0  0  0  0  0  0  0  0  0  0  0  0
    7.9748   15.0651   21.0778 H    0  0  0  0  0  0  0  0  0  0  0  0
    8.6537   16.4323   21.9055 H    0  0  0  0  0  0  0  0  0  0  0  0
    8.8361    9.5464   22.6040 H    0  0  0  0  0  0  0  0  0  0  0  0
    9.9185    9.4735   24.0339 H    0  0  0  0  0  0  0  0  0  0  0  0
   10.2973   10.5485   22.6803 H    0  0  0  0  0  0  0  0  0  0  0  0
    7.4422   15.6477   25.3228 H    0  0  0  0  0  0  0  0  0  0  0  0
    7.5841   14.4840   26.6171 H    0  0  0  0  0  0  0  0  0  0  0  0
    5.0536   15.0568   24.9769 H    0  0  0  0  0  0  0  0  0  0  0  0
    5.3783   15.7147   26.5813 H    0  0  0  0  0  0  0  0  0  0  0  0
    4.4979   10.6292   27.0495 H    0  0  0  0  0  0  0  0  0  0  0  0
    5.7201    8.6482   26.2539 H    0  0  0  0  0  0  0  0  0  0  0  0
    7.6596    8.8733   24.7977 H    0  0  0  0  0  0  0  0  0  0  0  0
  9 10  1  0  0  0  0
  7  9  1  0  0  0  0
  6  7  1  0  0  0  0
  5  6  1  0  0  0  0
  4  5  1  0  0  0  0
  2  4  1  0  0  0  0
  1  2  2  0  0  0  0
  3  2  1  0  0  0  0
 24  3  1  0  0  0  0
 25  3  1  0  0  0  0
 26  4  1  0  0  0  0
 27  5  1  0  0  0  0
 28  5  1  0  0  0  0
 29  6  1  0  0  0  0
 30  6  1  0  0  0  0
 31  7  1  0  0  0  0
 32  7  1  0  0  0  0
  8  4  1  0  0  0  0
 33  8  1  0  0  0  0
 34  8  1  0  0  0  0
 11 10  2  0  0  0  0
 12 10  1  0  0  0  0
 13 12  1  0  0  0  0
 14 13  1  0  0  0  0
 23 14  2  0  0  0  0
 15 14  1  0  0  0  0
 16 15  1  0  0  0  0
 35 16  1  0  0  0  0
 36 16  1  0  0  0  0
 37 16  1  0  0  0  0
 17 12  1  0  0  0  0
 38 17  1  0  0  0  0
 39 17  1  0  0  0  0
 18 17  1  0  0  0  0
 40 18  1  0  0  0  0
 41 18  1  0  0  0  0
 19 18  1  0  0  0  0
 20 13  2  0  0  0  0
 21 20  1  0  0  0  0
 42 21  1  0  0  0  0
 22 21  2  0  0  0  0
 43 22  1  0  0  0  0
 44 23  1  0  0  0  0
  9  8  1  0  0  0  0
 20 19  1  0  0  0  0
 23 22  1  0  0  0  0
M  END
>  <FittedScore>
-35.14

$$$$
