A71EV2A-x5389a_lowest-energy
  FITTED

 44 46     0  0  0  0  0  0  0999 V2000
    9.8340   16.6840   19.3494 O    0  0  0  0  0  0  0  0  0  0  0  0
   10.2541   15.5876   19.6695 C    0  0  0  0  0  0  0  0  0  0  0  0
   10.7976   14.7513   18.7618 N    0  0  0  0  0  0  0  0  0  0  0  0
   10.1500   15.0069   21.0741 C    0  0  0  0  0  0  0  0  0  0  0  0
   11.3595   15.4366   21.9481 C    0  0  0  0  0  0  0  0  0  0  0  0
   11.2954   14.7362   23.3282 C    0  0  0  0  0  0  0  0  0  0  0  0
    9.9068   14.8951   24.0096 C    0  0  0  0  0  0  0  0  0  0  0  0
    8.8219   15.3373   21.8104 C    0  0  0  0  0  0  0  0  0  0  0  0
    8.7178   14.6149   23.1185 N    0  0  0  0  0  0  0  0  0  0  0  0
    7.6718   13.7562   23.4014 C    0  0  0  0  0  0  0  0  0  0  0  0
    7.0090   13.2533   22.5063 O    0  0  0  0  0  0  0  0  0  0  0  0
    7.3790   13.4432   24.7123 N    0  0  0  0  0  0  0  0  0  0  0  0
    6.9353   12.1021   25.1006 C    0  0  0  0  0  0  0  0  0  0  0  0
    7.6609   10.9454   24.6920 C    0  0  0  0  0  0  0  0  0  0  0  0
    8.8430   11.0906   23.9594 O    0  0  0  0  0  0  0  0  0  0  0  0
    9.5787   10.0250   23.3202 C    0  0  0  0  0  0  0  0  0  0  0  0
    7.1486   14.5342   25.7076 C    0  0  0  0  0  0  0  0  0  0  0  0
    5.6472   14.7552   25.9346 C    0  0  0  0  0  0  0  0  0  0  0  0
    4.7950   13.2750   26.5484 S    0  0  0  0  0  0  0  0  0  0  0  0
    5.7699   11.9295   25.9033 C    0  0  0  0  0  0  0  0  0  0  0  0
    5.3284   10.6484   26.2589 C    0  0  0  0  0  0  0  0  0  0  0  0
    6.0293    9.5256   25.8312 C    0  0  0  0  0  0  0  0  0  0  0  0
    7.1834    9.6681   25.0592 C    0  0  0  0  0  0  0  0  0  0  0  0
   10.8763   15.0296   17.7910 H    0  0  0  0  0  0  0  0  0  0  0  0
   10.9754   13.7835   19.0307 H    0  0  0  0  0  0  0  0  0  0  0  0
   10.1725   13.9111   20.9932 H    0  0  0  0  0  0  0  0  0  0  0  0
   12.2949   15.1672   21.4519 H    0  0  0  0  0  0  0  0  0  0  0  0
   11.3650   16.5226   22.0805 H    0  0  0  0  0  0  0  0  0  0  0  0
   11.5234   13.6734   23.2011 H    0  0  0  0  0  0  0  0  0  0  0  0
   12.0716   15.1488   23.9777 H    0  0  0  0  0  0  0  0  0  0  0  0
    9.9209   14.2239   24.8710 H    0  0  0  0  0  0  0  0  0  0  0  0
    9.8181   15.9105   24.4062 H    0  0  0  0  0  0  0  0  0  0  0  0
    7.9853   15.1190   21.1403 H    0  0  0  0  0  0  0  0  0  0  0  0
    8.7508   16.4135   22.0012 H    0  0  0  0  0  0  0  0  0  0  0  0
    9.9363    9.3135   24.0668 H    0  0  0  0  0  0  0  0  0  0  0  0
   10.4531   10.4462   22.8230 H    0  0  0  0  0  0  0  0  0  0  0  0
    8.9522    9.5200   22.5804 H    0  0  0  0  0  0  0  0  0  0  0  0
    7.5664   15.4944   25.4023 H    0  0  0  0  0  0  0  0  0  0  0  0
    7.6459   14.2737   26.6462 H    0  0  0  0  0  0  0  0  0  0  0  0
    5.1728   15.0469   24.9944 H    0  0  0  0  0  0  0  0  0  0  0  0
    5.4892   15.5611   26.6534 H    0  0  0  0  0  0  0  0  0  0  0  0
    4.4391   10.5140   26.8723 H    0  0  0  0  0  0  0  0  0  0  0  0
    5.6813    8.5340   26.1080 H    0  0  0  0  0  0  0  0  0  0  0  0
    7.6981    8.7599   24.7604 H    0  0  0  0  0  0  0  0  0  0  0  0
  9 10  1  0  0  0  0
  7  9  1  0  0  0  0
  6  7  1  0  0  0  0
  5  6  1  0  0  0  0
  4  5  1  0  0  0  0
  2  4  1  0  0  0  0
  1  2  2  0  0  0  0
  3  2  1  0  0  0  0
 24  3  1  0  0  0  0
 25  3  1  0  0  0  0
 26  4  1  0  0  0  0
 27  5  1  0  0  0  0
 28  5  1  0  0  0  0
 29  6  1  0  0  0  0
 30  6  1  0  0  0  0
 31  7  1  0  0  0  0
 32  7  1  0  0  0  0
  8  4  1  0  0  0  0
 33  8  1  0  0  0  0
 34  8  1  0  0  0  0
 11 10  2  0  0  0  0
 12 10  1  0  0  0  0
 13 12  1  0  0  0  0
 14 13  1  0  0  0  0
 23 14  2  0  0  0  0
 15 14  1  0  0  0  0
 16 15  1  0  0  0  0
 35 16  1  0  0  0  0
 36 16  1  0  0  0  0
 37 16  1  0  0  0  0
 17 12  1  0  0  0  0
 38 17  1  0  0  0  0
 39 17  1  0  0  0  0
 18 17  1  0  0  0  0
 40 18  1  0  0  0  0
 41 18  1  0  0  0  0
 19 18  1  0  0  0  0
 20 13  2  0  0  0  0
 21 20  1  0  0  0  0
 42 21  1  0  0  0  0
 22 21  2  0  0  0  0
 43 22  1  0  0  0  0
 44 23  1  0  0  0  0
  9  8  1  0  0  0  0
 20 19  1  0  0  0  0
 23 22  1  0  0  0  0
M  END
>  <FittedScore>
-35.11

$$$$
