A71EV2A-x4239a_best-RMSD
  FITTED

 44 46     0  0  0  0  0  0  0999 V2000
    9.8195   16.9803   18.9880 O    0  0  0  0  0  0  0  0  0  0  0  0
   10.2557   16.0299   19.6023 C    0  0  0  0  0  0  0  0  0  0  0  0
   10.8458   15.0310   18.9188 N    0  0  0  0  0  0  0  0  0  0  0  0
    9.9656   15.8299   21.0959 C    0  0  0  0  0  0  0  0  0  0  0  0
    8.8094   14.8564   21.4165 C    0  0  0  0  0  0  0  0  0  0  0  0
   11.1369   15.3023   21.9644 C    0  0  0  0  0  0  0  0  0  0  0  0
   10.4408   14.6163   23.1568 C    0  0  0  0  0  0  0  0  0  0  0  0
   10.5465   15.6193   24.3310 C    0  0  0  0  0  0  0  0  0  0  0  0
   11.7191   16.5672   24.0111 C    0  0  0  0  0  0  0  0  0  0  0  0
   12.0582   16.4109   22.5194 C    0  0  0  0  0  0  0  0  0  0  0  0
    9.0553   14.2439   22.7457 N    0  0  0  0  0  0  0  0  0  0  0  0
    8.1697   13.4040   23.3915 C    0  0  0  0  0  0  0  0  0  0  0  0
    7.1407   13.0446   22.8384 O    0  0  0  0  0  0  0  0  0  0  0  0
    8.4461   12.9904   24.8494 C    0  0  0  0  0  0  0  0  0  0  0  0
    7.5718   11.8151   25.3430 C    0  0  0  0  0  0  0  0  0  0  0  0
    7.8801   10.4935   24.9250 C    0  0  0  0  0  0  0  0  0  0  0  0
    9.0072   10.2738   24.1354 O    0  0  0  0  0  0  0  0  0  0  0  0
    9.3258    9.0381   23.4490 C    0  0  0  0  0  0  0  0  0  0  0  0
    6.4364   12.0213   26.1777 C    0  0  0  0  0  0  0  0  0  0  0  0
    5.9074   13.5694   26.7571 CL   0  0  0  0  0  0  0  0  0  0  0  0
    5.6488   10.9353   26.5843 C    0  0  0  0  0  0  0  0  0  0  0  0
    5.9572    9.6457   26.1627 C    0  0  0  0  0  0  0  0  0  0  0  0
    7.0557    9.4261   25.3323 C    0  0  0  0  0  0  0  0  0  0  0  0
   10.9098   15.0932   17.9078 H    0  0  0  0  0  0  0  0  0  0  0  0
   11.0470   14.1529   19.3789 H    0  0  0  0  0  0  0  0  0  0  0  0
    9.6644   16.8150   21.4783 H    0  0  0  0  0  0  0  0  0  0  0  0
    7.8601   15.4008   21.4068 H    0  0  0  0  0  0  0  0  0  0  0  0
    8.7491   14.0633   20.6621 H    0  0  0  0  0  0  0  0  0  0  0  0
   11.7340   14.5539   21.4344 H    0  0  0  0  0  0  0  0  0  0  0  0
   11.0010   13.7078   23.4022 H    0  0  0  0  0  0  0  0  0  0  0  0
    9.6218   16.1960   24.4402 H    0  0  0  0  0  0  0  0  0  0  0  0
   10.7183   15.0916   25.2726 H    0  0  0  0  0  0  0  0  0  0  0  0
   11.4420   17.6039   24.2238 H    0  0  0  0  0  0  0  0  0  0  0  0
   12.5908   16.3332   24.6265 H    0  0  0  0  0  0  0  0  0  0  0  0
   11.9344   17.3594   21.9900 H    0  0  0  0  0  0  0  0  0  0  0  0
   13.1063   16.1260   22.3946 H    0  0  0  0  0  0  0  0  0  0  0  0
    9.4917   12.7106   24.9819 H    0  0  0  0  0  0  0  0  0  0  0  0
    8.3288   13.8611   25.4959 H    0  0  0  0  0  0  0  0  0  0  0  0
    8.4988    8.7360   22.7989 H    0  0  0  0  0  0  0  0  0  0  0  0
    9.5473    8.2521   24.1763 H    0  0  0  0  0  0  0  0  0  0  0  0
   10.2093    9.1928   22.8242 H    0  0  0  0  0  0  0  0  0  0  0  0
    4.7875   11.0893   27.2248 H    0  0  0  0  0  0  0  0  0  0  0  0
    5.3416    8.8057   26.4748 H    0  0  0  0  0  0  0  0  0  0  0  0
    7.2608    8.4017   25.0320 H    0  0  0  0  0  0  0  0  0  0  0  0
  5 11  1  0  0  0  0
  4  5  1  0  0  0  0
  2  4  1  0  0  0  0
  1  2  2  0  0  0  0
  3  2  1  0  0  0  0
 24  3  1  0  0  0  0
 25  3  1  0  0  0  0
 26  4  1  0  0  0  0
 27  5  1  0  0  0  0
 28  5  1  0  0  0  0
  6  4  1  0  0  0  0
 10  6  1  0  0  0  0
 29  6  1  0  0  0  0
  7  6  1  0  0  0  0
  8  7  1  0  0  0  0
 30  7  1  0  0  0  0
 31  8  1  0  0  0  0
 32  8  1  0  0  0  0
  9  8  1  0  0  0  0
 33  9  1  0  0  0  0
 34  9  1  0  0  0  0
 35 10  1  0  0  0  0
 36 10  1  0  0  0  0
 12 11  1  0  0  0  0
 13 12  2  0  0  0  0
 14 12  1  0  0  0  0
 37 14  1  0  0  0  0
 38 14  1  0  0  0  0
 15 14  1  0  0  0  0
 16 15  1  0  0  0  0
 23 16  2  0  0  0  0
 17 16  1  0  0  0  0
 18 17  1  0  0  0  0
 39 18  1  0  0  0  0
 40 18  1  0  0  0  0
 41 18  1  0  0  0  0
 19 15  2  0  0  0  0
 20 19  1  0  0  0  0
 21 19  1  0  0  0  0
 42 21  1  0  0  0  0
 22 21  2  0  0  0  0
 43 22  1  0  0  0  0
 44 23  1  0  0  0  0
 10  9  1  0  0  0  0
 11  7  1  0  0  0  0
 23 22  1  0  0  0  0
M  END
>  <FittedScore>
-36.96

$$$$
