A71EV2A-x4239a_lowest-energy
  FITTED

 44 46     0  0  0  0  0  0  0999 V2000
    9.8747   17.0498   18.9905 O    0  0  0  0  0  0  0  0  0  0  0  0
   10.2592   16.0747   19.5980 C    0  0  0  0  0  0  0  0  0  0  0  0
   10.7228   15.0180   18.9069 N    0  0  0  0  0  0  0  0  0  0  0  0
   10.0181   15.9031   21.0971 C    0  0  0  0  0  0  0  0  0  0  0  0
    8.8396   14.9647   21.4408 C    0  0  0  0  0  0  0  0  0  0  0  0
   11.2226   15.3487   21.9048 C    0  0  0  0  0  0  0  0  0  0  0  0
   10.5767   14.5537   23.0492 C    0  0  0  0  0  0  0  0  0  0  0  0
   10.7467   15.4169   24.3233 C    0  0  0  0  0  0  0  0  0  0  0  0
   11.8554   16.4403   24.0441 C    0  0  0  0  0  0  0  0  0  0  0  0
   12.1307   16.4327   22.5305 C    0  0  0  0  0  0  0  0  0  0  0  0
    9.1654   14.2373   22.6844 N    0  0  0  0  0  0  0  0  0  0  0  0
    8.3111   13.3611   23.3121 C    0  0  0  0  0  0  0  0  0  0  0  0
    7.2112   13.1028   22.8414 O    0  0  0  0  0  0  0  0  0  0  0  0
    8.7848   12.7032   24.6158 C    0  0  0  0  0  0  0  0  0  0  0  0
    7.7854   11.6967   25.2083 C    0  0  0  0  0  0  0  0  0  0  0  0
    7.8004   10.3577   24.7506 C    0  0  0  0  0  0  0  0  0  0  0  0
    8.7274   10.0114   23.7725 O    0  0  0  0  0  0  0  0  0  0  0  0
    9.1838    8.6814   23.4562 C    0  0  0  0  0  0  0  0  0  0  0  0
    6.8223   12.0907   26.1736 C    0  0  0  0  0  0  0  0  0  0  0  0
    6.7107   13.7045   26.8130 CL   0  0  0  0  0  0  0  0  0  0  0  0
    5.8993   11.1560   26.6650 C    0  0  0  0  0  0  0  0  0  0  0  0
    5.9197    9.8341   26.2117 C    0  0  0  0  0  0  0  0  0  0  0  0
    6.8616    9.4373   25.2557 C    0  0  0  0  0  0  0  0  0  0  0  0
   10.8885   14.1317   19.3657 H    0  0  0  0  0  0  0  0  0  0  0  0
   10.7610   15.0654   17.8980 H    0  0  0  0  0  0  0  0  0  0  0  0
    9.7504   16.8897   21.4978 H    0  0  0  0  0  0  0  0  0  0  0  0
    7.9257   15.5513   21.5686 H    0  0  0  0  0  0  0  0  0  0  0  0
    8.6539   14.2376   20.6447 H    0  0  0  0  0  0  0  0  0  0  0  0
   11.8367   14.6643   21.3105 H    0  0  0  0  0  0  0  0  0  0  0  0
   11.1381   13.6215   23.1635 H    0  0  0  0  0  0  0  0  0  0  0  0
    9.8160   15.9355   24.5791 H    0  0  0  0  0  0  0  0  0  0  0  0
   11.0205   14.7906   25.1749 H    0  0  0  0  0  0  0  0  0  0  0  0
   11.5413   17.4373   24.3713 H    0  0  0  0  0  0  0  0  0  0  0  0
   12.7604   16.1802   24.5965 H    0  0  0  0  0  0  0  0  0  0  0  0
   11.9674   17.4251   22.0967 H    0  0  0  0  0  0  0  0  0  0  0  0
   13.1783   16.1846   22.3487 H    0  0  0  0  0  0  0  0  0  0  0  0
    9.7432   12.2077   24.4459 H    0  0  0  0  0  0  0  0  0  0  0  0
    9.0168   13.4628   25.3566 H    0  0  0  0  0  0  0  0  0  0  0  0
    9.9167    8.7419   22.6490 H    0  0  0  0  0  0  0  0  0  0  0  0
    8.3592    8.0529   23.1125 H    0  0  0  0  0  0  0  0  0  0  0  0
    9.6616    8.2351   24.3305 H    0  0  0  0  0  0  0  0  0  0  0  0
    5.1612   11.4576   27.4000 H    0  0  0  0  0  0  0  0  0  0  0  0
    5.1900    9.1181   26.5861 H    0  0  0  0  0  0  0  0  0  0  0  0
    6.8299    8.4117   24.8987 H    0  0  0  0  0  0  0  0  0  0  0  0
  5 11  1  0  0  0  0
  4  5  1  0  0  0  0
  2  4  1  0  0  0  0
  1  2  2  0  0  0  0
  3  2  1  0  0  0  0
 24  3  1  0  0  0  0
 25  3  1  0  0  0  0
 26  4  1  0  0  0  0
 27  5  1  0  0  0  0
 28  5  1  0  0  0  0
  6  4  1  0  0  0  0
 10  6  1  0  0  0  0
 29  6  1  0  0  0  0
  7  6  1  0  0  0  0
  8  7  1  0  0  0  0
 30  7  1  0  0  0  0
 31  8  1  0  0  0  0
 32  8  1  0  0  0  0
  9  8  1  0  0  0  0
 33  9  1  0  0  0  0
 34  9  1  0  0  0  0
 35 10  1  0  0  0  0
 36 10  1  0  0  0  0
 12 11  1  0  0  0  0
 13 12  2  0  0  0  0
 14 12  1  0  0  0  0
 37 14  1  0  0  0  0
 38 14  1  0  0  0  0
 15 14  1  0  0  0  0
 16 15  1  0  0  0  0
 23 16  2  0  0  0  0
 17 16  1  0  0  0  0
 18 17  1  0  0  0  0
 39 18  1  0  0  0  0
 40 18  1  0  0  0  0
 41 18  1  0  0  0  0
 19 15  2  0  0  0  0
 20 19  1  0  0  0  0
 21 19  1  0  0  0  0
 42 21  1  0  0  0  0
 22 21  2  0  0  0  0
 43 22  1  0  0  0  0
 44 23  1  0  0  0  0
 10  9  1  0  0  0  0
 11  7  1  0  0  0  0
 23 22  1  0  0  0  0
M  END
>  <FittedScore>
-36.73

$$$$
