A71EV2A-x7307a_lowest-energy
  FITTED

 69 71     0  0  0  0  0  0  0999 V2000
    9.6158    8.9046   23.3448 C    0  0  0  0  0  0  0  0  0  0  0  0
    9.3918   10.5827   24.0205 S    0  0  0  0  0  0  0  0  0  0  0  0
    7.8169   10.6577   24.8831 C    0  0  0  0  0  0  0  0  0  0  0  0
    7.1289    9.4800   25.1868 C    0  0  0  0  0  0  0  0  0  0  0  0
    5.9281    9.5099   25.8827 C    0  0  0  0  0  0  0  0  0  0  0  0
    5.3617   10.7132   26.3286 C    0  0  0  0  0  0  0  0  0  0  0  0
    4.1118   10.7011   27.1948 C    0  0  0  0  0  0  0  0  0  0  0  0
    3.3707   11.6634   27.2920 O    0  0  0  0  0  0  0  0  0  0  0  0
    3.9939    9.6431   28.0680 N    0  0  0  0  0  0  0  0  0  0  0  0
    5.1324    9.2742   28.9760 C    0  0  0  0  0  0  0  0  0  0  0  0
    2.6941    8.9382   28.3282 C    0  0  0  0  0  0  0  0  0  0  0  0
    1.9769    9.4609   29.6172 C    0  0  0  0  0  0  0  0  0  0  0  0
    0.6830    8.6779   29.9784 C    0  0  0  0  0  0  0  0  0  0  0  0
    0.8518    7.1130   29.9984 C    0  0  0  0  0  0  0  0  0  0  0  0
    1.7170    6.6492   31.2257 C    0  0  0  0  0  0  0  0  0  0  0  0
   -0.5535    6.4490   30.1515 C    0  0  0  0  0  0  0  0  0  0  0  0
    1.4902    6.6425   28.6401 C    0  0  0  0  0  0  0  0  0  0  0  0
    2.8116    7.3731   28.2777 C    0  0  0  0  0  0  0  0  0  0  0  0
    6.0000   11.9123   25.9503 C    0  0  0  0  0  0  0  0  0  0  0  0
    7.2416   11.8954   25.2718 C    0  0  0  0  0  0  0  0  0  0  0  0
    7.9697   13.2238   25.0058 C    0  0  0  0  0  0  0  0  0  0  0  0
    8.0432   13.6247   23.5182 C    0  0  0  0  0  0  0  0  0  0  0  0
    7.3287   13.0411   22.7242 O    0  0  0  0  0  0  0  0  0  0  0  0
    8.9104   14.6193   23.1052 N    0  0  0  0  0  0  0  0  0  0  0  0
    9.7196   15.5134   24.0003 C    0  0  0  0  0  0  0  0  0  0  0  0
   11.2149   15.6068   23.5964 C    0  0  0  0  0  0  0  0  0  0  0  0
   11.3816   16.0593   22.1190 C    0  0  0  0  0  0  0  0  0  0  0  0
   10.5235   15.1821   21.1581 C    0  0  0  0  0  0  0  0  0  0  0  0
   10.5643   15.7076   19.7178 C    0  0  0  0  0  0  0  0  0  0  0  0
   10.9327   14.8287   18.7619 N    0  0  0  0  0  0  0  0  0  0  0  0
   10.1641   16.8079   19.3878 O    0  0  0  0  0  0  0  0  0  0  0  0
    9.0509   15.0383   21.6649 C    0  0  0  0  0  0  0  0  0  0  0  0
   10.5300    8.8826   22.7498 H    0  0  0  0  0  0  0  0  0  0  0  0
    8.7748    8.6321   22.7011 H    0  0  0  0  0  0  0  0  0  0  0  0
    9.7237    8.1870   24.1602 H    0  0  0  0  0  0  0  0  0  0  0  0
    7.5053    8.5055   24.8966 H    0  0  0  0  0  0  0  0  0  0  0  0
    5.4396    8.5568   26.0795 H    0  0  0  0  0  0  0  0  0  0  0  0
    5.8258   10.1103   29.1064 H    0  0  0  0  0  0  0  0  0  0  0  0
    5.6916    8.4325   28.5627 H    0  0  0  0  0  0  0  0  0  0  0  0
    4.8096    8.9897   29.9767 H    0  0  0  0  0  0  0  0  0  0  0  0
    2.0279    9.1913   27.4966 H    0  0  0  0  0  0  0  0  0  0  0  0
    1.7233   10.5148   29.4714 H    0  0  0  0  0  0  0  0  0  0  0  0
    2.6460    9.4391   30.4794 H    0  0  0  0  0  0  0  0  0  0  0  0
   -0.0936    8.9662   29.2623 H    0  0  0  0  0  0  0  0  0  0  0  0
    0.3377    9.0293   30.9551 H    0  0  0  0  0  0  0  0  0  0  0  0
    1.2366    6.9103   32.1736 H    0  0  0  0  0  0  0  0  0  0  0  0
    2.7105    7.1020   31.2392 H    0  0  0  0  0  0  0  0  0  0  0  0
    1.8596    5.5638   31.2287 H    0  0  0  0  0  0  0  0  0  0  0  0
   -1.2228    6.7040   29.3252 H    0  0  0  0  0  0  0  0  0  0  0  0
   -1.0502    6.7622   31.0741 H    0  0  0  0  0  0  0  0  0  0  0  0
   -0.4794    5.3580   30.1730 H    0  0  0  0  0  0  0  0  0  0  0  0
    0.7854    6.8004   27.8183 H    0  0  0  0  0  0  0  0  0  0  0  0
    1.6836    5.5655   28.6624 H    0  0  0  0  0  0  0  0  0  0  0  0
    3.1172    7.0720   27.2707 H    0  0  0  0  0  0  0  0  0  0  0  0
    3.5948    7.0045   28.9438 H    0  0  0  0  0  0  0  0  0  0  0  0
    5.5554   12.8613   26.2471 H    0  0  0  0  0  0  0  0  0  0  0  0
    8.9671   13.1183   25.4442 H    0  0  0  0  0  0  0  0  0  0  0  0
    7.4921   14.0405   25.5519 H    0  0  0  0  0  0  0  0  0  0  0  0
    9.6984   15.2188   25.0487 H    0  0  0  0  0  0  0  0  0  0  0  0
    9.2766   16.5145   23.9918 H    0  0  0  0  0  0  0  0  0  0  0  0
   11.6893   14.6317   23.7438 H    0  0  0  0  0  0  0  0  0  0  0  0
   11.7265   16.3123   24.2584 H    0  0  0  0  0  0  0  0  0  0  0  0
   12.4358   15.9744   21.8415 H    0  0  0  0  0  0  0  0  0  0  0  0
   11.1077   17.1170   22.0265 H    0  0  0  0  0  0  0  0  0  0  0  0
   10.9587   14.1739   21.1891 H    0  0  0  0  0  0  0  0  0  0  0  0
   10.8874   15.0996   17.7865 H    0  0  0  0  0  0  0  0  0  0  0  0
   11.1022   13.8516   19.0021 H    0  0  0  0  0  0  0  0  0  0  0  0
    8.5637   14.3333   20.9881 H    0  0  0  0  0  0  0  0  0  0  0  0
    8.5155   15.9823   21.5312 H    0  0  0  0  0  0  0  0  0  0  0  0
  6 19  1  0  0  0  0
  5  6  2  0  0  0  0
  4  5  1  0  0  0  0
  3  4  2  0  0  0  0
  2  3  1  0  0  0  0
  1  2  1  0  0  0  0
 33  1  1  0  0  0  0
 34  1  1  0  0  0  0
 35  1  1  0  0  0  0
 36  4  1  0  0  0  0
 37  5  1  0  0  0  0
  7  6  1  0  0  0  0
  8  7  2  0  0  0  0
  9  7  1  0  0  0  0
 10  9  1  0  0  0  0
 11  9  1  0  0  0  0
 38 10  1  0  0  0  0
 39 10  1  0  0  0  0
 40 10  1  0  0  0  0
 12 11  1  0  0  0  0
 41 11  1  0  0  0  0
 13 12  1  0  0  0  0
 42 12  1  0  0  0  0
 43 12  1  0  0  0  0
 14 13  1  0  0  0  0
 44 13  1  0  0  0  0
 45 13  1  0  0  0  0
 15 14  1  0  0  0  0
 16 14  1  0  0  0  0
 17 14  1  0  0  0  0
 46 15  1  0  0  0  0
 47 15  1  0  0  0  0
 48 15  1  0  0  0  0
 49 16  1  0  0  0  0
 50 16  1  0  0  0  0
 51 16  1  0  0  0  0
 18 17  1  0  0  0  0
 52 17  1  0  0  0  0
 53 17  1  0  0  0  0
 54 18  1  0  0  0  0
 55 18  1  0  0  0  0
 20 19  2  0  0  0  0
 56 19  1  0  0  0  0
 21 20  1  0  0  0  0
 22 21  1  0  0  0  0
 57 21  1  0  0  0  0
 58 21  1  0  0  0  0
 23 22  2  0  0  0  0
 24 22  1  0  0  0  0
 25 24  1  0  0  0  0
 26 25  1  0  0  0  0
 59 25  1  0  0  0  0
 60 25  1  0  0  0  0
 27 26  1  0  0  0  0
 61 26  1  0  0  0  0
 62 26  1  0  0  0  0
 28 27  1  0  0  0  0
 63 27  1  0  0  0  0
 64 27  1  0  0  0  0
 29 28  1  0  0  0  0
 32 28  1  0  0  0  0
 65 28  1  0  0  0  0
 30 29  1  0  0  0  0
 31 29  2  0  0  0  0
 66 30  1  0  0  0  0
 67 30  1  0  0  0  0
 68 32  1  0  0  0  0
 69 32  1  0  0  0  0
 18 11  1  0  0  0  0
 20  3  1  0  0  0  0
 32 24  1  0  0  0  0
M  END
>  <FittedScore>
-36.70

$$$$
