A71EV2A-x7333a_lowest-energy
  FITTED

 52 53     0  0  0  0  0  0  0999 V2000
    9.6186   16.6420   19.4702 O    0  0  0  0  0  0  0  0  0  0  0  0
   10.1682   15.5996   19.7709 C    0  0  0  0  0  0  0  0  0  0  0  0
   10.7200   14.8242   18.8201 N    0  0  0  0  0  0  0  0  0  0  0  0
   10.1631   15.0257   21.1880 C    0  0  0  0  0  0  0  0  0  0  0  0
   11.2349   15.7481   22.0617 C    0  0  0  0  0  0  0  0  0  0  0  0
   11.1224   15.3288   23.5490 C    0  0  0  0  0  0  0  0  0  0  0  0
    9.6664   15.4599   24.0610 C    0  0  0  0  0  0  0  0  0  0  0  0
    8.7291   15.0597   21.8229 C    0  0  0  0  0  0  0  0  0  0  0  0
    8.6955   14.6324   23.2613 N    0  0  0  0  0  0  0  0  0  0  0  0
    7.9310   13.5863   23.7253 C    0  0  0  0  0  0  0  0  0  0  0  0
    7.1051   13.0330   23.0169 O    0  0  0  0  0  0  0  0  0  0  0  0
    8.2260   13.0389   25.1246 C    0  0  0  0  0  0  0  0  0  0  0  0
    7.5007   11.7263   25.4608 C    0  0  0  0  0  0  0  0  0  0  0  0
    7.9619   10.4795   24.9532 C    0  0  0  0  0  0  0  0  0  0  0  0
    9.3689   10.3713   23.8531 S    0  0  0  0  0  0  0  0  0  0  0  0
    9.7078    8.5974   23.5968 C    0  0  0  0  0  0  0  0  0  0  0  0
    6.3356   11.7039   26.2775 C    0  0  0  0  0  0  0  0  0  0  0  0
    5.7412   10.5260   26.6195 N    0  0  0  0  0  0  0  0  0  0  0  0
    6.2695    9.3809   26.1247 C    0  0  0  0  0  0  0  0  0  0  0  0
    7.3337    9.3204   25.2862 N    0  0  0  0  0  0  0  0  0  0  0  0
    5.7427   12.8457   26.7741 N    0  0  0  0  0  0  0  0  0  0  0  0
    6.1738   13.3843   28.0799 C    0  0  0  0  0  0  0  0  0  0  0  0
    4.6622   13.5325   26.0118 C    0  0  0  0  0  0  0  0  0  0  0  0
    3.2388   13.3229   26.6283 C    0  0  0  0  0  0  0  0  0  0  0  0
    3.0670   12.0486   27.0298 F    0  0  0  0  0  0  0  0  0  0  0  0
    3.1068   14.0983   27.7237 F    0  0  0  0  0  0  0  0  0  0  0  0
    2.0865   13.6537   25.6577 C    0  0  0  0  0  0  0  0  0  0  0  0
   10.7028   15.1255   17.8511 H    0  0  0  0  0  0  0  0  0  0  0  0
   10.9966   13.8709   19.0549 H    0  0  0  0  0  0  0  0  0  0  0  0
   10.4513   13.9670   21.1531 H    0  0  0  0  0  0  0  0  0  0  0  0
   12.2392   15.5104   21.6979 H    0  0  0  0  0  0  0  0  0  0  0  0
   11.1150   16.8328   21.9842 H    0  0  0  0  0  0  0  0  0  0  0  0
   11.4674   14.2975   23.6715 H    0  0  0  0  0  0  0  0  0  0  0  0
   11.7771   15.9589   24.1565 H    0  0  0  0  0  0  0  0  0  0  0  0
    9.6775   15.2326   25.1243 H    0  0  0  0  0  0  0  0  0  0  0  0
    9.3522   16.5094   24.0175 H    0  0  0  0  0  0  0  0  0  0  0  0
    8.0723   14.4501   21.1952 H    0  0  0  0  0  0  0  0  0  0  0  0
    8.3150   16.0700   21.7613 H    0  0  0  0  0  0  0  0  0  0  0  0
    9.2988   12.8769   25.2492 H    0  0  0  0  0  0  0  0  0  0  0  0
    7.9892   13.8134   25.8544 H    0  0  0  0  0  0  0  0  0  0  0  0
    8.8851    8.1231   23.0584 H    0  0  0  0  0  0  0  0  0  0  0  0
    9.8539    8.1021   24.5586 H    0  0  0  0  0  0  0  0  0  0  0  0
   10.6224    8.4917   23.0101 H    0  0  0  0  0  0  0  0  0  0  0  0
    5.8091    8.4428   26.4259 H    0  0  0  0  0  0  0  0  0  0  0  0
    5.5292   13.0242   28.8851 H    0  0  0  0  0  0  0  0  0  0  0  0
    6.1592   14.4756   28.1029 H    0  0  0  0  0  0  0  0  0  0  0  0
    7.1943   13.0797   28.3300 H    0  0  0  0  0  0  0  0  0  0  0  0
    4.6569   13.1826   24.9729 H    0  0  0  0  0  0  0  0  0  0  0  0
    4.8698   14.6038   25.9405 H    0  0  0  0  0  0  0  0  0  0  0  0
    2.1528   13.0508   24.7492 H    0  0  0  0  0  0  0  0  0  0  0  0
    2.1066   14.7075   25.3711 H    0  0  0  0  0  0  0  0  0  0  0  0
    1.1191   13.4533   26.1277 H    0  0  0  0  0  0  0  0  0  0  0  0
 10 12  1  0  0  0  0
  9 10  1  0  0  0  0
  7  9  1  0  0  0  0
  6  7  1  0  0  0  0
  5  6  1  0  0  0  0
  4  5  1  0  0  0  0
  2  4  1  0  0  0  0
  1  2  2  0  0  0  0
  3  2  1  0  0  0  0
 28  3  1  0  0  0  0
 29  3  1  0  0  0  0
 30  4  1  0  0  0  0
 31  5  1  0  0  0  0
 32  5  1  0  0  0  0
 33  6  1  0  0  0  0
 34  6  1  0  0  0  0
 35  7  1  0  0  0  0
 36  7  1  0  0  0  0
  8  4  1  0  0  0  0
 37  8  1  0  0  0  0
 38  8  1  0  0  0  0
 11 10  2  0  0  0  0
 39 12  1  0  0  0  0
 40 12  1  0  0  0  0
 13 12  1  0  0  0  0
 14 13  1  0  0  0  0
 20 14  2  0  0  0  0
 15 14  1  0  0  0  0
 16 15  1  0  0  0  0
 41 16  1  0  0  0  0
 42 16  1  0  0  0  0
 43 16  1  0  0  0  0
 17 13  2  0  0  0  0
 18 17  1  0  0  0  0
 19 18  2  0  0  0  0
 44 19  1  0  0  0  0
 21 17  1  0  0  0  0
 22 21  1  0  0  0  0
 45 22  1  0  0  0  0
 46 22  1  0  0  0  0
 47 22  1  0  0  0  0
 23 21  1  0  0  0  0
 48 23  1  0  0  0  0
 49 23  1  0  0  0  0
 24 23  1  0  0  0  0
 25 24  1  0  0  0  0
 26 24  1  0  0  0  0
 27 24  1  0  0  0  0
 50 27  1  0  0  0  0
 51 27  1  0  0  0  0
 52 27  1  0  0  0  0
  9  8  1  0  0  0  0
 20 19  1  0  0  0  0
M  END
>  <FittedScore>
-36.14

$$$$
