A71EV2A-x4420a_lowest-energy
  FITTED

 36 38     0  0  0  0  0  0  0999 V2000
    5.9068   10.9837   26.3887 CL   0  0  0  0  0  0  0  0  0  0  0  0
    7.1650   11.5153   25.3333 C    0  0  0  0  0  0  0  0  0  0  0  0
    7.4739   12.8078   25.1449 C    0  0  0  0  0  0  0  0  0  0  0  0
    7.9839   10.5238   24.5929 C    0  0  0  0  0  0  0  0  0  0  0  0
    9.0398   10.9343   23.8291 C    0  0  0  0  0  0  0  0  0  0  0  0
    9.7315    9.7954   23.1800 N    0  0  0  0  0  0  0  0  0  0  0  0
    8.9178    8.7971   23.6376 N    0  0  0  0  0  0  0  0  0  0  0  0
    7.8906    9.1722   24.4466 C    0  0  0  0  0  0  0  0  0  0  0  0
    9.3085   12.3939   23.7212 C    0  0  0  0  0  0  0  0  0  0  0  0
    8.4906   13.2646   24.3714 C    0  0  0  0  0  0  0  0  0  0  0  0
    8.6412   14.7948   24.2889 C    0  0  0  0  0  0  0  0  0  0  0  0
    9.8168   15.3054   23.5213 N    0  0  0  0  0  0  0  0  0  0  0  0
   11.0433   15.5533   24.1013 C    0  0  0  0  0  0  0  0  0  0  0  0
   11.2394   15.3819   25.2928 O    0  0  0  0  0  0  0  0  0  0  0  0
   12.2396   15.8901   23.2070 C    0  0  0  0  0  0  0  0  0  0  0  0
   11.8883   16.3222   21.7599 C    0  0  0  0  0  0  0  0  0  0  0  0
    9.5307   15.4847   22.0633 C    0  0  0  0  0  0  0  0  0  0  0  0
   10.7982   15.3907   21.1725 C    0  0  0  0  0  0  0  0  0  0  0  0
   10.5250   15.7092   19.6936 C    0  0  0  0  0  0  0  0  0  0  0  0
    9.9908   16.7291   19.2858 O    0  0  0  0  0  0  0  0  0  0  0  0
   10.8982   14.7614   18.8125 N    0  0  0  0  0  0  0  0  0  0  0  0
    6.8529   13.5355   25.6670 H    0  0  0  0  0  0  0  0  0  0  0  0
    9.0211    7.8386   23.3373 H    0  0  0  0  0  0  0  0  0  0  0  0
    7.1565    8.5043   24.8856 H    0  0  0  0  0  0  0  0  0  0  0  0
   10.1448   12.7345   23.1193 H    0  0  0  0  0  0  0  0  0  0  0  0
    7.7211   15.2171   23.8736 H    0  0  0  0  0  0  0  0  0  0  0  0
    8.6695   15.2019   25.3012 H    0  0  0  0  0  0  0  0  0  0  0  0
   12.8152   16.6900   23.6776 H    0  0  0  0  0  0  0  0  0  0  0  0
   12.8946   15.0157   23.1613 H    0  0  0  0  0  0  0  0  0  0  0  0
   11.5284   17.3557   21.7656 H    0  0  0  0  0  0  0  0  0  0  0  0
   12.7868   16.3049   21.1370 H    0  0  0  0  0  0  0  0  0  0  0  0
    9.0565   16.4622   21.9235 H    0  0  0  0  0  0  0  0  0  0  0  0
    8.8180   14.7331   21.7065 H    0  0  0  0  0  0  0  0  0  0  0  0
   11.1678   14.3562   21.2583 H    0  0  0  0  0  0  0  0  0  0  0  0
   11.2235   13.8535   19.1392 H    0  0  0  0  0  0  0  0  0  0  0  0
   10.7626   14.9040   17.8147 H    0  0  0  0  0  0  0  0  0  0  0  0
 11 12  1  0  0  0  0
 10 11  1  0  0  0  0
  3 10  1  0  0  0  0
  2  3  2  0  0  0  0
  1  2  1  0  0  0  0
 22  3  1  0  0  0  0
  4  2  1  0  0  0  0
  8  4  2  0  0  0  0
  5  4  1  0  0  0  0
  6  5  2  0  0  0  0
  7  6  1  0  0  0  0
 23  7  1  0  0  0  0
 24  8  1  0  0  0  0
  9  5  1  0  0  0  0
 25  9  1  0  0  0  0
 26 11  1  0  0  0  0
 27 11  1  0  0  0  0
 13 12  1  0  0  0  0
 14 13  2  0  0  0  0
 15 13  1  0  0  0  0
 28 15  1  0  0  0  0
 29 15  1  0  0  0  0
 16 15  1  0  0  0  0
 30 16  1  0  0  0  0
 31 16  1  0  0  0  0
 17 12  1  0  0  0  0
 32 17  1  0  0  0  0
 33 17  1  0  0  0  0
 18 16  1  0  0  0  0
 19 18  1  0  0  0  0
 34 18  1  0  0  0  0
 20 19  2  0  0  0  0
 21 19  1  0  0  0  0
 35 21  1  0  0  0  0
 36 21  1  0  0  0  0
  8  7  1  0  0  0  0
 10  9  2  0  0  0  0
 18 17  1  0  0  0  0
M  END
>  <FittedScore>
-26.94

$$$$
