A71EV2A-x4420a_best-RMSD
  FITTED

 36 38     0  0  0  0  0  0  0999 V2000
    9.7226    9.8280   23.4529 CL   0  0  0  0  0  0  0  0  0  0  0  0
    8.6703   11.0574   24.0700 C    0  0  0  0  0  0  0  0  0  0  0  0
    8.7950   12.3826   23.8519 C    0  0  0  0  0  0  0  0  0  0  0  0
    7.5309   10.6439   24.9278 C    0  0  0  0  0  0  0  0  0  0  0  0
    6.7143   11.5668   25.5164 C    0  0  0  0  0  0  0  0  0  0  0  0
    5.6719   10.9378   26.3660 N    0  0  0  0  0  0  0  0  0  0  0  0
    6.0018    9.6294   26.1152 N    0  0  0  0  0  0  0  0  0  0  0  0
    7.0471    9.4191   25.2701 C    0  0  0  0  0  0  0  0  0  0  0  0
    6.9511   12.9998   25.2046 C    0  0  0  0  0  0  0  0  0  0  0  0
    7.9710   13.3389   24.3759 C    0  0  0  0  0  0  0  0  0  0  0  0
    8.1074   14.8422   24.0606 C    0  0  0  0  0  0  0  0  0  0  0  0
    9.4004   15.2698   23.4401 N    0  0  0  0  0  0  0  0  0  0  0  0
   10.5314   15.5511   24.1785 C    0  0  0  0  0  0  0  0  0  0  0  0
   10.5298   15.5352   25.4003 O    0  0  0  0  0  0  0  0  0  0  0  0
   11.8517   15.8150   23.4422 C    0  0  0  0  0  0  0  0  0  0  0  0
   11.7124   16.2419   21.9522 C    0  0  0  0  0  0  0  0  0  0  0  0
    9.3147   15.4136   21.9523 C    0  0  0  0  0  0  0  0  0  0  0  0
   10.6786   15.3503   21.2041 C    0  0  0  0  0  0  0  0  0  0  0  0
   10.5426   15.7481   19.7188 C    0  0  0  0  0  0  0  0  0  0  0  0
   10.1253   16.8261   19.3382 O    0  0  0  0  0  0  0  0  0  0  0  0
   10.7947   14.7797   18.8210 N    0  0  0  0  0  0  0  0  0  0  0  0
    9.6166   12.6681   23.2023 H    0  0  0  0  0  0  0  0  0  0  0  0
    5.5274    8.8342   26.5548 H    0  0  0  0  0  0  0  0  0  0  0  0
    7.4274    8.4471   24.9595 H    0  0  0  0  0  0  0  0  0  0  0  0
    6.3090   13.7707   25.6264 H    0  0  0  0  0  0  0  0  0  0  0  0
    7.2613   15.1373   23.4323 H    0  0  0  0  0  0  0  0  0  0  0  0
    7.9565   15.4262   24.9750 H    0  0  0  0  0  0  0  0  0  0  0  0
   12.3996   16.5997   23.9730 H    0  0  0  0  0  0  0  0  0  0  0  0
   12.4595   14.9090   23.5035 H    0  0  0  0  0  0  0  0  0  0  0  0
   11.4019   17.2907   21.9056 H    0  0  0  0  0  0  0  0  0  0  0  0
   12.6867   16.1763   21.4607 H    0  0  0  0  0  0  0  0  0  0  0  0
    8.8300   16.3707   21.7464 H    0  0  0  0  0  0  0  0  0  0  0  0
    8.6710   14.6372   21.5263 H    0  0  0  0  0  0  0  0  0  0  0  0
   11.0355   14.3131   21.2762 H    0  0  0  0  0  0  0  0  0  0  0  0
   10.6801   14.9580   17.8345 H    0  0  0  0  0  0  0  0  0  0  0  0
   10.9949   13.8350   19.1259 H    0  0  0  0  0  0  0  0  0  0  0  0
 11 12  1  0  0  0  0
 10 11  1  0  0  0  0
  3 10  1  0  0  0  0
  2  3  2  0  0  0  0
  1  2  1  0  0  0  0
 22  3  1  0  0  0  0
  4  2  1  0  0  0  0
  8  4  2  0  0  0  0
  5  4  1  0  0  0  0
  6  5  2  0  0  0  0
  7  6  1  0  0  0  0
 23  7  1  0  0  0  0
 24  8  1  0  0  0  0
  9  5  1  0  0  0  0
 25  9  1  0  0  0  0
 26 11  1  0  0  0  0
 27 11  1  0  0  0  0
 13 12  1  0  0  0  0
 14 13  2  0  0  0  0
 15 13  1  0  0  0  0
 28 15  1  0  0  0  0
 29 15  1  0  0  0  0
 16 15  1  0  0  0  0
 30 16  1  0  0  0  0
 31 16  1  0  0  0  0
 17 12  1  0  0  0  0
 32 17  1  0  0  0  0
 33 17  1  0  0  0  0
 18 16  1  0  0  0  0
 19 18  1  0  0  0  0
 34 18  1  0  0  0  0
 20 19  2  0  0  0  0
 21 19  1  0  0  0  0
 35 21  1  0  0  0  0
 36 21  1  0  0  0  0
  8  7  1  0  0  0  0
 10  9  2  0  0  0  0
 18 17  1  0  0  0  0
M  END
>  <FittedScore>
-26.48

$$$$
