A71EV2A-x5854a_lowest-energy
  FITTED

 45 48     0  0  0  0  0  0  0999 V2000
    9.2674    8.6684   23.4264 C    0  0  0  0  0  0  0  0  0  0  0  0
    9.3474   10.3962   24.0361 S    0  0  0  0  0  0  0  0  0  0  0  0
    7.8328   10.6137   24.9865 C    0  0  0  0  0  0  0  0  0  0  0  0
    7.0452    9.4902   25.2913 C    0  0  0  0  0  0  0  0  0  0  0  0
    6.1525    9.4886   26.3261 C    0  0  0  0  0  0  0  0  0  0  0  0
    5.9995   10.6247   27.0921 C    0  0  0  0  0  0  0  0  0  0  0  0
    5.3018   10.4574   28.2225 N    0  0  0  0  0  0  0  0  0  0  0  0
    5.1837   11.5213   29.0345 C    0  0  0  0  0  0  0  0  0  0  0  0
    5.7112   12.7823   28.7375 C    0  0  0  0  0  0  0  0  0  0  0  0
    6.4257   12.9798   27.5512 C    0  0  0  0  0  0  0  0  0  0  0  0
    6.6188   11.8544   26.7052 C    0  0  0  0  0  0  0  0  0  0  0  0
    7.4683   11.8584   25.5718 C    0  0  0  0  0  0  0  0  0  0  0  0
    8.0213   13.0909   25.0613 N    0  0  0  0  0  0  0  0  0  0  0  0
    7.9190   13.5724   23.7856 C    0  0  0  0  0  0  0  0  0  0  0  0
    7.1842   13.0461   22.9811 O    0  0  0  0  0  0  0  0  0  0  0  0
    8.6187   14.7239   23.4400 N    0  0  0  0  0  0  0  0  0  0  0  0
    8.6789   15.3766   22.0760 C    0  0  0  0  0  0  0  0  0  0  0  0
   10.0819   15.5402   21.3201 C    0  0  0  0  0  0  0  0  0  0  0  0
   10.0050   16.3472   19.9842 C    0  0  0  0  0  0  0  0  0  0  0  0
   10.3708   15.7149   18.8316 N    0  0  0  0  0  0  0  0  0  0  0  0
    9.4918   17.4230   19.8956 O    0  0  0  0  0  0  0  0  0  0  0  0
   11.1370   16.2316   22.2566 C    0  0  0  0  0  0  0  0  0  0  0  0
   11.0623   15.6575   23.6554 C    0  0  0  0  0  0  0  0  0  0  0  0
   10.8177   14.2376   23.9151 C    0  0  0  0  0  0  0  0  0  0  0  0
    9.7485   15.2169   24.2451 C    0  0  0  0  0  0  0  0  0  0  0  0
    8.3206    8.6168   22.8655 H    0  0  0  0  0  0  0  0  0  0  0  0
    9.2902    7.9038   24.2071 H    0  0  0  0  0  0  0  0  0  0  0  0
   10.0917    8.3868   22.7688 H    0  0  0  0  0  0  0  0  0  0  0  0
    7.0944    8.5371   24.8063 H    0  0  0  0  0  0  0  0  0  0  0  0
    5.6624    8.5476   26.5674 H    0  0  0  0  0  0  0  0  0  0  0  0
    4.6173   11.3880   29.9318 H    0  0  0  0  0  0  0  0  0  0  0  0
    5.5682   13.5718   29.4571 H    0  0  0  0  0  0  0  0  0  0  0  0
    6.8768   13.9602   27.3750 H    0  0  0  0  0  0  0  0  0  0  0  0
    8.6644   13.5173   25.7212 H    0  0  0  0  0  0  0  0  0  0  0  0
    8.3426   16.3868   22.2978 H    0  0  0  0  0  0  0  0  0  0  0  0
    7.9815   14.9360   21.3802 H    0  0  0  0  0  0  0  0  0  0  0  0
   10.4505   14.5351   21.0603 H    0  0  0  0  0  0  0  0  0  0  0  0
   10.5570   14.7197   18.8418 H    0  0  0  0  0  0  0  0  0  0  0  0
   10.3143   16.1450   17.9224 H    0  0  0  0  0  0  0  0  0  0  0  0
   10.9354   17.3103   22.3438 H    0  0  0  0  0  0  0  0  0  0  0  0
   12.1333   16.0134   21.8542 H    0  0  0  0  0  0  0  0  0  0  0  0
   11.9167   15.9615   24.2501 H    0  0  0  0  0  0  0  0  0  0  0  0
   11.3433   13.9599   24.7431 H    0  0  0  0  0  0  0  0  0  0  0  0
   10.9324   13.4940   23.1124 H    0  0  0  0  0  0  0  0  0  0  0  0
    9.4733   15.1451   25.3164 H    0  0  0  0  0  0  0  0  0  0  0  0
 13 14  1  0  0  0  0
 12 13  1  0  0  0  0
 11 12  2  0  0  0  0
 10 11  1  0  0  0  0
  9 10  2  0  0  0  0
  8  9  1  0  0  0  0
  7  8  2  0  0  0  0
  6  7  1  0  0  0  0
  5  6  2  0  0  0  0
  4  5  1  0  0  0  0
  3  4  2  0  0  0  0
  2  3  1  0  0  0  0
  1  2  1  0  0  0  0
 26  1  1  0  0  0  0
 27  1  1  0  0  0  0
 28  1  1  0  0  0  0
 29  4  1  0  0  0  0
 30  5  1  0  0  0  0
 31  8  1  0  0  0  0
 32  9  1  0  0  0  0
 33 10  1  0  0  0  0
 34 13  1  0  0  0  0
 15 14  2  0  0  0  0
 16 14  1  0  0  0  0
 17 16  1  0  0  0  0
 18 17  1  0  0  0  0
 35 17  1  0  0  0  0
 36 17  1  0  0  0  0
 19 18  1  0  0  0  0
 22 18  1  0  0  0  0
 37 18  1  0  0  0  0
 20 19  1  0  0  0  0
 21 19  2  0  0  0  0
 38 20  1  0  0  0  0
 39 20  1  0  0  0  0
 40 22  1  0  0  0  0
 41 22  1  0  0  0  0
 23 22  1  0  0  0  0
 24 23  1  0  0  0  0
 42 23  1  0  0  0  0
 43 24  1  0  0  0  0
 44 24  1  0  0  0  0
 25 24  1  0  0  0  0
 45 25  1  0  0  0  0
 11  6  1  0  0  0  0
 12  3  1  0  0  0  0
 25 16  1  0  0  0  0
 25 23  1  0  0  0  0
M  END
>  <FittedScore>
-28.83

$$$$
