A71EV2A-x5854a_best-RMSD
  FITTED

 45 48     0  0  0  0  0  0  0999 V2000
    9.4954    9.0085   23.2393 C    0  0  0  0  0  0  0  0  0  0  0  0
    9.1360   10.7943   23.4163 S    0  0  0  0  0  0  0  0  0  0  0  0
    8.0336   10.9039   24.8122 C    0  0  0  0  0  0  0  0  0  0  0  0
    7.4945    9.6958   25.3059 C    0  0  0  0  0  0  0  0  0  0  0  0
    6.5563    9.7072   26.3227 C    0  0  0  0  0  0  0  0  0  0  0  0
    6.1002   10.8950   26.8512 C    0  0  0  0  0  0  0  0  0  0  0  0
    5.0546   10.8538   27.7231 N    0  0  0  0  0  0  0  0  0  0  0  0
    4.7303   11.9772   28.3601 C    0  0  0  0  0  0  0  0  0  0  0  0
    5.4986   13.1214   28.2306 C    0  0  0  0  0  0  0  0  0  0  0  0
    6.4301   13.2364   27.2211 C    0  0  0  0  0  0  0  0  0  0  0  0
    6.7494   12.1116   26.4673 C    0  0  0  0  0  0  0  0  0  0  0  0
    7.6948   12.1375   25.4082 C    0  0  0  0  0  0  0  0  0  0  0  0
    8.1942   13.4088   24.9411 N    0  0  0  0  0  0  0  0  0  0  0  0
    8.0932   14.0156   23.7131 C    0  0  0  0  0  0  0  0  0  0  0  0
    7.3487   13.5770   22.8442 O    0  0  0  0  0  0  0  0  0  0  0  0
    8.8962   15.1254   23.5445 N    0  0  0  0  0  0  0  0  0  0  0  0
    9.0914   15.8565   22.2444 C    0  0  0  0  0  0  0  0  0  0  0  0
   10.3566   15.2615   21.5175 C    0  0  0  0  0  0  0  0  0  0  0  0
   10.3687   15.4231   19.9903 C    0  0  0  0  0  0  0  0  0  0  0  0
   11.4599   15.0205   19.3066 N    0  0  0  0  0  0  0  0  0  0  0  0
    9.4232   15.9038   19.4227 O    0  0  0  0  0  0  0  0  0  0  0  0
   11.5909   15.7057   22.3574 C    0  0  0  0  0  0  0  0  0  0  0  0
   11.4958   15.1180   23.8327 C    0  0  0  0  0  0  0  0  0  0  0  0
   10.9629   14.0451   24.7684 C    0  0  0  0  0  0  0  0  0  0  0  0
   10.0866   15.1813   24.4107 C    0  0  0  0  0  0  0  0  0  0  0  0
   10.0168    8.8355   22.3031 H    0  0  0  0  0  0  0  0  0  0  0  0
    8.6075    8.3852   23.2091 H    0  0  0  0  0  0  0  0  0  0  0  0
   10.1422    8.6944   24.0594 H    0  0  0  0  0  0  0  0  0  0  0  0
    7.7125    8.7119   24.9377 H    0  0  0  0  0  0  0  0  0  0  0  0
    6.1551    8.7542   26.6778 H    0  0  0  0  0  0  0  0  0  0  0  0
    3.8478   12.0138   29.0137 H    0  0  0  0  0  0  0  0  0  0  0  0
    5.3306   13.9723   28.8809 H    0  0  0  0  0  0  0  0  0  0  0  0
    6.9336   14.1851   27.1192 H    0  0  0  0  0  0  0  0  0  0  0  0
    8.7358   13.8772   25.6504 H    0  0  0  0  0  0  0  0  0  0  0  0
    9.2692   16.9215   22.4742 H    0  0  0  0  0  0  0  0  0  0  0  0
    8.2062   15.8926   21.6312 H    0  0  0  0  0  0  0  0  0  0  0  0
   10.3351   14.1845   21.6224 H    0  0  0  0  0  0  0  0  0  0  0  0
   12.2302   14.5917   19.7864 H    0  0  0  0  0  0  0  0  0  0  0  0
   11.3829   14.9793   18.2939 H    0  0  0  0  0  0  0  0  0  0  0  0
   11.6255   16.7924   22.4310 H    0  0  0  0  0  0  0  0  0  0  0  0
   12.5508   15.4626   21.8818 H    0  0  0  0  0  0  0  0  0  0  0  0
   12.3383   15.5898   24.3377 H    0  0  0  0  0  0  0  0  0  0  0  0
   11.3406   14.0602   25.7972 H    0  0  0  0  0  0  0  0  0  0  0  0
   10.8603   13.0353   24.3785 H    0  0  0  0  0  0  0  0  0  0  0  0
    9.8305   16.0078   25.0625 H    0  0  0  0  0  0  0  0  0  0  0  0
 13 14  1  0  0  0  0
 12 13  1  0  0  0  0
 11 12  2  0  0  0  0
 10 11  1  0  0  0  0
  9 10  2  0  0  0  0
  8  9  1  0  0  0  0
  7  8  2  0  0  0  0
  6  7  1  0  0  0  0
  5  6  2  0  0  0  0
  4  5  1  0  0  0  0
  3  4  2  0  0  0  0
  2  3  1  0  0  0  0
  1  2  1  0  0  0  0
 26  1  1  0  0  0  0
 27  1  1  0  0  0  0
 28  1  1  0  0  0  0
 29  4  1  0  0  0  0
 30  5  1  0  0  0  0
 31  8  1  0  0  0  0
 32  9  1  0  0  0  0
 33 10  1  0  0  0  0
 34 13  1  0  0  0  0
 15 14  2  0  0  0  0
 16 14  1  0  0  0  0
 17 16  1  0  0  0  0
 18 17  1  0  0  0  0
 35 17  1  0  0  0  0
 36 17  1  0  0  0  0
 19 18  1  0  0  0  0
 22 18  1  0  0  0  0
 37 18  1  0  0  0  0
 20 19  1  0  0  0  0
 21 19  2  0  0  0  0
 38 20  1  0  0  0  0
 39 20  1  0  0  0  0
 40 22  1  0  0  0  0
 41 22  1  0  0  0  0
 23 22  1  0  0  0  0
 24 23  1  0  0  0  0
 42 23  1  0  0  0  0
 43 24  1  0  0  0  0
 44 24  1  0  0  0  0
 25 24  1  0  0  0  0
 45 25  1  0  0  0  0
 11  6  1  0  0  0  0
 12  3  1  0  0  0  0
 25 16  1  0  0  0  0
 25 23  1  0  0  0  0
M  END
>  <FittedScore>
-26.41

$$$$
