A71EV2A-x4295a_lowest-energy
  FITTED

 38 39     0  0  0  0  0  0  0999 V2000
   11.4567   15.8341   24.4006 O    0  0  0  0  0  0  0  0  0  0  0  0
   11.1749   15.3459   23.3373 C    0  0  0  0  0  0  0  0  0  0  0  0
   11.5888   15.8735   21.9838 C    0  0  0  0  0  0  0  0  0  0  0  0
   11.0260   14.8028   21.0366 C    0  0  0  0  0  0  0  0  0  0  0  0
   10.6136   15.2600   19.6453 C    0  0  0  0  0  0  0  0  0  0  0  0
    9.5505   15.7942   19.4049 O    0  0  0  0  0  0  0  0  0  0  0  0
   11.4253   14.8762   18.6384 N    0  0  0  0  0  0  0  0  0  0  0  0
    9.8668   14.1726   21.8299 C    0  0  0  0  0  0  0  0  0  0  0  0
   10.2805   14.3581   23.2020 N    0  0  0  0  0  0  0  0  0  0  0  0
    9.7396   13.4508   24.2481 C    0  0  0  0  0  0  0  0  0  0  0  0
    8.1975   13.2827   24.2683 C    0  0  0  0  0  0  0  0  0  0  0  0
    7.7007   14.5830   24.5641 O    0  0  0  0  0  0  0  0  0  0  0  0
    7.6158   12.1645   25.1600 C    0  0  0  0  0  0  0  0  0  0  0  0
    7.8784   10.7978   24.8733 C    0  0  0  0  0  0  0  0  0  0  0  0
    8.8164   10.4703   23.8912 O    0  0  0  0  0  0  0  0  0  0  0  0
    9.2708    9.1408   23.5241 C    0  0  0  0  0  0  0  0  0  0  0  0
    6.6946   12.4762   26.1929 C    0  0  0  0  0  0  0  0  0  0  0  0
    6.0093   11.4749   26.8838 C    0  0  0  0  0  0  0  0  0  0  0  0
    6.2193   10.1386   26.5499 C    0  0  0  0  0  0  0  0  0  0  0  0
    7.1458    9.8044   25.5561 C    0  0  0  0  0  0  0  0  0  0  0  0
   11.1533   16.8634   21.8015 H    0  0  0  0  0  0  0  0  0  0  0  0
   12.6764   15.9414   21.9025 H    0  0  0  0  0  0  0  0  0  0  0  0
   11.7962   14.0254   20.9417 H    0  0  0  0  0  0  0  0  0  0  0  0
   11.1576   15.0997   17.6937 H    0  0  0  0  0  0  0  0  0  0  0  0
   12.3107   14.4041   18.7972 H    0  0  0  0  0  0  0  0  0  0  0  0
    8.9095   14.6776   21.6694 H    0  0  0  0  0  0  0  0  0  0  0  0
    9.7559   13.1136   21.5727 H    0  0  0  0  0  0  0  0  0  0  0  0
   10.2459   12.5022   24.1086 H    0  0  0  0  0  0  0  0  0  0  0  0
   10.0627   13.7764   25.2413 H    0  0  0  0  0  0  0  0  0  0  0  0
    7.8405   13.0476   23.2630 H    0  0  0  0  0  0  0  0  0  0  0  0
    6.8015   14.6424   24.1817 H    0  0  0  0  0  0  0  0  0  0  0  0
    8.4415    8.5388   23.1450 H    0  0  0  0  0  0  0  0  0  0  0  0
    9.7209    8.6466   24.3877 H    0  0  0  0  0  0  0  0  0  0  0  0
   10.0271    9.2190   22.7413 H    0  0  0  0  0  0  0  0  0  0  0  0
    6.4736   13.5039   26.4719 H    0  0  0  0  0  0  0  0  0  0  0  0
    5.3032   11.7402   27.6661 H    0  0  0  0  0  0  0  0  0  0  0  0
    5.6590    9.3572   27.0608 H    0  0  0  0  0  0  0  0  0  0  0  0
    7.2720    8.7509   25.3211 H    0  0  0  0  0  0  0  0  0  0  0  0
  9 10  1  0  0  0  0
  8  9  1  0  0  0  0
  4  8  1  0  0  0  0
  5  4  1  0  0  0  0
  3  4  1  0  0  0  0
  2  3  1  0  0  0  0
  1  2  2  0  0  0  0
 21  3  1  0  0  0  0
 22  3  1  0  0  0  0
 23  4  1  0  0  0  0
  6  5  2  0  0  0  0
  7  5  1  0  0  0  0
 24  7  1  0  0  0  0
 25  7  1  0  0  0  0
 26  8  1  0  0  0  0
 27  8  1  0  0  0  0
 28 10  1  0  0  0  0
 29 10  1  0  0  0  0
 11 10  1  0  0  0  0
 12 11  1  0  0  0  0
 30 11  1  0  0  0  0
 31 12  1  0  0  0  0
 13 11  1  0  0  0  0
 14 13  1  0  0  0  0
 20 14  2  0  0  0  0
 15 14  1  0  0  0  0
 16 15  1  0  0  0  0
 32 16  1  0  0  0  0
 33 16  1  0  0  0  0
 34 16  1  0  0  0  0
 17 13  2  0  0  0  0
 35 17  1  0  0  0  0
 18 17  1  0  0  0  0
 36 18  1  0  0  0  0
 19 18  2  0  0  0  0
 37 19  1  0  0  0  0
 38 20  1  0  0  0  0
  9  2  1  0  0  0  0
 20 19  1  0  0  0  0
M  END
>  <FittedScore>
-34.26

$$$$
