A71EV2A-x4563a_best-RMSD
  FITTED

 30 31     0  0  0  0  0  0  0999 V2000
   10.9336   14.3407   25.4844 O    0  0  0  0  0  0  0  0  0  0  0  0
   10.7743   14.6282   24.3105 C    0  0  0  0  0  0  0  0  0  0  0  0
   11.7601   15.6074   23.6538 C    0  0  0  0  0  0  0  0  0  0  0  0
   11.3849   16.1329   22.2401 C    0  0  0  0  0  0  0  0  0  0  0  0
    9.8332   13.9803   23.5357 N    0  0  0  0  0  0  0  0  0  0  0  0
    9.5154   14.4248   22.1462 C    0  0  0  0  0  0  0  0  0  0  0  0
   10.7405   15.0101   21.3849 C    0  0  0  0  0  0  0  0  0  0  0  0
   10.3898   15.4770   19.9650 C    0  0  0  0  0  0  0  0  0  0  0  0
    9.7525   16.4851   19.7150 O    0  0  0  0  0  0  0  0  0  0  0  0
   10.7208   14.6220   18.9755 N    0  0  0  0  0  0  0  0  0  0  0  0
    9.0742   12.8691   24.0513 C    0  0  0  0  0  0  0  0  0  0  0  0
    9.5071   11.5521   23.8099 C    0  0  0  0  0  0  0  0  0  0  0  0
    8.7827   10.4699   24.3298 C    0  0  0  0  0  0  0  0  0  0  0  0
    7.6390   10.6951   25.1101 C    0  0  0  0  0  0  0  0  0  0  0  0
    7.2050   12.0084   25.3531 C    0  0  0  0  0  0  0  0  0  0  0  0
    7.9167   13.0931   24.8207 C    0  0  0  0  0  0  0  0  0  0  0  0
   11.8948   16.4698   24.3130 H    0  0  0  0  0  0  0  0  0  0  0  0
   12.7299   15.1084   23.5985 H    0  0  0  0  0  0  0  0  0  0  0  0
   10.6863   16.9689   22.3428 H    0  0  0  0  0  0  0  0  0  0  0  0
   12.2778   16.5258   21.7427 H    0  0  0  0  0  0  0  0  0  0  0  0
    8.7178   15.1730   22.1996 H    0  0  0  0  0  0  0  0  0  0  0  0
    9.1076   13.5895   21.5642 H    0  0  0  0  0  0  0  0  0  0  0  0
   11.4845   14.2075   21.3146 H    0  0  0  0  0  0  0  0  0  0  0  0
   10.5613   14.8763   18.0078 H    0  0  0  0  0  0  0  0  0  0  0  0
   11.0512   13.6821   19.1910 H    0  0  0  0  0  0  0  0  0  0  0  0
   10.4071   11.3676   23.2260 H    0  0  0  0  0  0  0  0  0  0  0  0
    9.1194    9.4507   24.1469 H    0  0  0  0  0  0  0  0  0  0  0  0
    7.0839    9.8548   25.5202 H    0  0  0  0  0  0  0  0  0  0  0  0
    6.3115   12.1864   25.9451 H    0  0  0  0  0  0  0  0  0  0  0  0
    7.5684   14.1072   25.0049 H    0  0  0  0  0  0  0  0  0  0  0  0
  2  5  1  0  0  0  0
  3  2  1  0  0  0  0
 17  3  1  0  0  0  0
  1  2  2  0  0  0  0
 18  3  1  0  0  0  0
  4  3  1  0  0  0  0
 19  4  1  0  0  0  0
 20  4  1  0  0  0  0
  6  5  1  0  0  0  0
 21  6  1  0  0  0  0
 22  6  1  0  0  0  0
  7  4  1  0  0  0  0
  8  7  1  0  0  0  0
 23  7  1  0  0  0  0
  9  8  2  0  0  0  0
 10  8  1  0  0  0  0
 24 10  1  0  0  0  0
 25 10  1  0  0  0  0
 11  5  1  0  0  0  0
 16 11  2  0  0  0  0
 12 11  1  0  0  0  0
 26 12  1  0  0  0  0
 13 12  2  0  0  0  0
 27 13  1  0  0  0  0
 14 13  1  0  0  0  0
 28 14  1  0  0  0  0
 15 14  2  0  0  0  0
 29 15  1  0  0  0  0
 30 16  1  0  0  0  0
  7  6  1  0  0  0  0
 16 15  1  0  0  0  0
M  END
>  <FittedScore>
-31.32

$$$$
