A71EV2A-x4563a_lowest-energy
  FITTED

 30 31     0  0  0  0  0  0  0999 V2000
   11.0713   14.6156   25.4178 O    0  0  0  0  0  0  0  0  0  0  0  0
   10.8867   14.8699   24.2390 C    0  0  0  0  0  0  0  0  0  0  0  0
   11.9296   15.7395   23.5135 C    0  0  0  0  0  0  0  0  0  0  0  0
   11.5737   16.2105   22.0783 C    0  0  0  0  0  0  0  0  0  0  0  0
    9.9198   14.2188   23.5051 N    0  0  0  0  0  0  0  0  0  0  0  0
    9.5604   14.6724   22.1351 C    0  0  0  0  0  0  0  0  0  0  0  0
   10.8047   15.1059   21.3188 C    0  0  0  0  0  0  0  0  0  0  0  0
   10.4238   15.5438   19.9069 C    0  0  0  0  0  0  0  0  0  0  0  0
    9.7246   16.5089   19.6482 O    0  0  0  0  0  0  0  0  0  0  0  0
   10.7302   14.6517   18.9426 N    0  0  0  0  0  0  0  0  0  0  0  0
    9.2197   13.0632   24.0060 C    0  0  0  0  0  0  0  0  0  0  0  0
    8.1867   13.2083   24.9495 C    0  0  0  0  0  0  0  0  0  0  0  0
    7.5166   12.0757   25.4323 C    0  0  0  0  0  0  0  0  0  0  0  0
    7.8747   10.7973   24.9804 C    0  0  0  0  0  0  0  0  0  0  0  0
    8.9065   10.6478   24.0443 C    0  0  0  0  0  0  0  0  0  0  0  0
    9.5771   11.7781   23.5528 C    0  0  0  0  0  0  0  0  0  0  0  0
   12.1459   16.6227   24.1217 H    0  0  0  0  0  0  0  0  0  0  0  0
   12.8626   15.1732   23.4561 H    0  0  0  0  0  0  0  0  0  0  0  0
   10.9812   17.1285   22.1246 H    0  0  0  0  0  0  0  0  0  0  0  0
   12.4917   16.4525   21.5268 H    0  0  0  0  0  0  0  0  0  0  0  0
    8.8416   15.4916   22.2113 H    0  0  0  0  0  0  0  0  0  0  0  0
    9.0447   13.8801   21.5876 H    0  0  0  0  0  0  0  0  0  0  0  0
   11.4686   14.2292   21.2697 H    0  0  0  0  0  0  0  0  0  0  0  0
   10.5365   14.8531   17.9694 H    0  0  0  0  0  0  0  0  0  0  0  0
   11.0384   13.7138   19.1906 H    0  0  0  0  0  0  0  0  0  0  0  0
    7.9144   14.1976   25.3104 H    0  0  0  0  0  0  0  0  0  0  0  0
    6.7272   12.1970   26.1638 H    0  0  0  0  0  0  0  0  0  0  0  0
    7.3534    9.9231   25.3578 H    0  0  0  0  0  0  0  0  0  0  0  0
    9.1820    9.6527   23.7022 H    0  0  0  0  0  0  0  0  0  0  0  0
   10.3748   11.6557   22.8210 H    0  0  0  0  0  0  0  0  0  0  0  0
  2  5  1  0  0  0  0
  3  2  1  0  0  0  0
 17  3  1  0  0  0  0
  1  2  2  0  0  0  0
 18  3  1  0  0  0  0
  4  3  1  0  0  0  0
 19  4  1  0  0  0  0
 20  4  1  0  0  0  0
  6  5  1  0  0  0  0
 21  6  1  0  0  0  0
 22  6  1  0  0  0  0
  7  4  1  0  0  0  0
  8  7  1  0  0  0  0
 23  7  1  0  0  0  0
  9  8  2  0  0  0  0
 10  8  1  0  0  0  0
 24 10  1  0  0  0  0
 25 10  1  0  0  0  0
 11  5  1  0  0  0  0
 16 11  2  0  0  0  0
 12 11  1  0  0  0  0
 26 12  1  0  0  0  0
 13 12  2  0  0  0  0
 27 13  1  0  0  0  0
 14 13  1  0  0  0  0
 28 14  1  0  0  0  0
 15 14  2  0  0  0  0
 29 15  1  0  0  0  0
 30 16  1  0  0  0  0
  7  6  1  0  0  0  0
 16 15  1  0  0  0  0
M  END
>  <FittedScore>
-31.39

$$$$
