A71EV2A-x4949a_lowest-energy
  FITTED

 47 49     0  0  0  0  0  0  0999 V2000
    4.0161    8.5955   28.7998 O    0  0  0  0  0  0  0  0  0  0  0  0
    4.6069    9.5287   28.3032 C    0  0  0  0  0  0  0  0  0  0  0  0
    5.4281    9.3264   27.2418 N    0  0  0  0  0  0  0  0  0  0  0  0
    6.1701   10.3430   26.5590 C    0  0  0  0  0  0  0  0  0  0  0  0
    7.1672    9.9964   25.6343 C    0  0  0  0  0  0  0  0  0  0  0  0
    4.5524   10.9382   28.9026 C    0  0  0  0  0  0  0  0  0  0  0  0
    4.7759   12.0426   27.8312 C    0  0  0  0  0  0  0  0  0  0  0  0
    5.8881   11.6931   26.8397 C    0  0  0  0  0  0  0  0  0  0  0  0
    6.5874   12.6919   26.1599 C    0  0  0  0  0  0  0  0  0  0  0  0
    7.5804   12.3572   25.2297 C    0  0  0  0  0  0  0  0  0  0  0  0
    7.9022   11.0015   24.9722 C    0  0  0  0  0  0  0  0  0  0  0  0
    9.2522   10.6120   23.8493 S    0  0  0  0  0  0  0  0  0  0  0  0
    9.4040    8.8021   23.7006 C    0  0  0  0  0  0  0  0  0  0  0  0
    8.2095   13.4500   24.5584 N    0  0  0  0  0  0  0  0  0  0  0  0
    8.0565   13.8108   23.2559 C    0  0  0  0  0  0  0  0  0  0  0  0
    7.2912   13.1977   22.5328 O    0  0  0  0  0  0  0  0  0  0  0  0
    8.7744   14.9040   22.8174 N    0  0  0  0  0  0  0  0  0  0  0  0
    8.8079   15.3204   21.3725 C    0  0  0  0  0  0  0  0  0  0  0  0
   10.2574   15.3438   20.7944 C    0  0  0  0  0  0  0  0  0  0  0  0
   10.2937   15.7176   19.3116 C    0  0  0  0  0  0  0  0  0  0  0  0
    9.6718   16.6446   18.8303 O    0  0  0  0  0  0  0  0  0  0  0  0
   10.8499   14.8168   18.4893 N    0  0  0  0  0  0  0  0  0  0  0  0
   11.1753   16.2829   21.6271 C    0  0  0  0  0  0  0  0  0  0  0  0
   11.0940   15.9285   23.1394 C    0  0  0  0  0  0  0  0  0  0  0  0
    9.6255   15.8371   23.6428 C    0  0  0  0  0  0  0  0  0  0  0  0
    5.5706    8.3837   26.9019 H    0  0  0  0  0  0  0  0  0  0  0  0
    7.3634    8.9462   25.4579 H    0  0  0  0  0  0  0  0  0  0  0  0
    3.5986   11.1006   29.4108 H    0  0  0  0  0  0  0  0  0  0  0  0
    5.3318   11.0113   29.6651 H    0  0  0  0  0  0  0  0  0  0  0  0
    3.8425   12.1893   27.2769 H    0  0  0  0  0  0  0  0  0  0  0  0
    4.9925   12.9883   28.3367 H    0  0  0  0  0  0  0  0  0  0  0  0
    6.3400   13.7359   26.3415 H    0  0  0  0  0  0  0  0  0  0  0  0
    8.5116    8.3881   23.2326 H    0  0  0  0  0  0  0  0  0  0  0  0
    9.5498    8.3731   24.6971 H    0  0  0  0  0  0  0  0  0  0  0  0
   10.2682    8.5474   23.0862 H    0  0  0  0  0  0  0  0  0  0  0  0
    8.6761   14.0900   25.1881 H    0  0  0  0  0  0  0  0  0  0  0  0
    8.2151   14.6594   20.7307 H    0  0  0  0  0  0  0  0  0  0  0  0
    8.3399   16.3065   21.2697 H    0  0  0  0  0  0  0  0  0  0  0  0
   10.6464   14.3228   20.9071 H    0  0  0  0  0  0  0  0  0  0  0  0
   10.7884   14.9695   17.4874 H    0  0  0  0  0  0  0  0  0  0  0  0
   11.1051   13.8890   18.8276 H    0  0  0  0  0  0  0  0  0  0  0  0
   12.2088   16.1830   21.2861 H    0  0  0  0  0  0  0  0  0  0  0  0
   10.8816   17.3267   21.4753 H    0  0  0  0  0  0  0  0  0  0  0  0
   11.5917   14.9707   23.3216 H    0  0  0  0  0  0  0  0  0  0  0  0
   11.6351   16.6850   23.7161 H    0  0  0  0  0  0  0  0  0  0  0  0
    9.6559   15.5698   24.7004 H    0  0  0  0  0  0  0  0  0  0  0  0
    9.1762   16.8376   23.6211 H    0  0  0  0  0  0  0  0  0  0  0  0
 10 14  1  0  0  0  0
  9 10  1  0  0  0  0
  8  9  2  0  0  0  0
  4  8  1  0  0  0  0
  3  4  1  0  0  0  0
  2  3  1  0  0  0  0
  1  2  2  0  0  0  0
 26  3  1  0  0  0  0
  5  4  2  0  0  0  0
 27  5  1  0  0  0  0
  6  2  1  0  0  0  0
 28  6  1  0  0  0  0
 29  6  1  0  0  0  0
  7  6  1  0  0  0  0
 30  7  1  0  0  0  0
 31  7  1  0  0  0  0
 32  9  1  0  0  0  0
 11  5  1  0  0  0  0
 12 11  1  0  0  0  0
 13 12  1  0  0  0  0
 33 13  1  0  0  0  0
 34 13  1  0  0  0  0
 35 13  1  0  0  0  0
 36 14  1  0  0  0  0
 15 14  1  0  0  0  0
 16 15  2  0  0  0  0
 17 15  1  0  0  0  0
 25 17  1  0  0  0  0
 18 17  1  0  0  0  0
 37 18  1  0  0  0  0
 38 18  1  0  0  0  0
 19 18  1  0  0  0  0
 20 19  1  0  0  0  0
 39 19  1  0  0  0  0
 21 20  2  0  0  0  0
 22 20  1  0  0  0  0
 40 22  1  0  0  0  0
 41 22  1  0  0  0  0
 23 19  1  0  0  0  0
 42 23  1  0  0  0  0
 43 23  1  0  0  0  0
 24 23  1  0  0  0  0
 44 24  1  0  0  0  0
 45 24  1  0  0  0  0
 46 25  1  0  0  0  0
 47 25  1  0  0  0  0
  8  7  1  0  0  0  0
 11 10  2  0  0  0  0
 25 24  1  0  0  0  0
M  END
>  <FittedScore>
-39.90

$$$$
