A71EV2A-x4298a_lowest-energy
  FITTED

 38 39     0  0  0  0  0  0  0999 V2000
    9.8545   16.7131   19.1331 O    0  0  0  0  0  0  0  0  0  0  0  0
   10.2526   15.6460   19.5486 C    0  0  0  0  0  0  0  0  0  0  0  0
   10.7802   14.7509   18.6968 N    0  0  0  0  0  0  0  0  0  0  0  0
   10.1368   15.2113   21.0029 C    0  0  0  0  0  0  0  0  0  0  0  0
   11.1967   15.9321   21.8831 C    0  0  0  0  0  0  0  0  0  0  0  0
   11.0560   15.4827   23.3603 C    0  0  0  0  0  0  0  0  0  0  0  0
    9.5879   15.5573   23.8816 C    0  0  0  0  0  0  0  0  0  0  0  0
    8.7048   15.4312   21.5800 C    0  0  0  0  0  0  0  0  0  0  0  0
    8.5864   14.8981   22.9723 N    0  0  0  0  0  0  0  0  0  0  0  0
    7.7799   13.8259   23.2753 C    0  0  0  0  0  0  0  0  0  0  0  0
    7.2141   13.1685   22.4202 O    0  0  0  0  0  0  0  0  0  0  0  0
    7.6290   13.5097   24.5916 N    0  0  0  0  0  0  0  0  0  0  0  0
    7.2445   12.2428   25.1324 C    0  0  0  0  0  0  0  0  0  0  0  0
    6.3288   12.1585   26.1972 C    0  0  0  0  0  0  0  0  0  0  0  0
    5.9290   10.8865   26.6427 C    0  0  0  0  0  0  0  0  0  0  0  0
    6.4690    9.7455   26.0243 C    0  0  0  0  0  0  0  0  0  0  0  0
    7.7942   11.1331   24.5727 N    0  0  0  0  0  0  0  0  0  0  0  0
    7.4209    9.9011   25.0021 C    0  0  0  0  0  0  0  0  0  0  0  0
    7.9425    8.7613   24.4222 O    0  0  0  0  0  0  0  0  0  0  0  0
    9.0699    8.7628   23.4964 C    0  0  0  0  0  0  0  0  0  0  0  0
   10.8013   14.9673   17.7075 H    0  0  0  0  0  0  0  0  0  0  0  0
   10.9746   13.8019   19.0101 H    0  0  0  0  0  0  0  0  0  0  0  0
   10.3334   14.1336   21.0671 H    0  0  0  0  0  0  0  0  0  0  0  0
   12.2008   15.6920   21.5234 H    0  0  0  0  0  0  0  0  0  0  0  0
   11.0878   17.0199   21.8117 H    0  0  0  0  0  0  0  0  0  0  0  0
   11.4268   14.4555   23.4559 H    0  0  0  0  0  0  0  0  0  0  0  0
   11.6935   16.1081   23.9885 H    0  0  0  0  0  0  0  0  0  0  0  0
    9.5958   15.1317   24.8872 H    0  0  0  0  0  0  0  0  0  0  0  0
    9.3037   16.6050   24.0129 H    0  0  0  0  0  0  0  0  0  0  0  0
    7.9707   15.0067   20.8878 H    0  0  0  0  0  0  0  0  0  0  0  0
    8.4593   16.4974   21.5956 H    0  0  0  0  0  0  0  0  0  0  0  0
    7.8372   14.2141   25.2913 H    0  0  0  0  0  0  0  0  0  0  0  0
    5.9196   13.0534   26.6554 H    0  0  0  0  0  0  0  0  0  0  0  0
    5.2069   10.7832   27.4488 H    0  0  0  0  0  0  0  0  0  0  0  0
    6.1659    8.7502   26.3479 H    0  0  0  0  0  0  0  0  0  0  0  0
    9.2962    7.7325   23.2085 H    0  0  0  0  0  0  0  0  0  0  0  0
    9.9562    9.1864   23.9794 H    0  0  0  0  0  0  0  0  0  0  0  0
    8.8379    9.3396   22.5951 H    0  0  0  0  0  0  0  0  0  0  0  0
  9 10  1  0  0  0  0
  7  9  1  0  0  0  0
  6  7  1  0  0  0  0
  5  6  1  0  0  0  0
  4  5  1  0  0  0  0
  2  4  1  0  0  0  0
  1  2  2  0  0  0  0
  3  2  1  0  0  0  0
 21  3  1  0  0  0  0
 22  3  1  0  0  0  0
 23  4  1  0  0  0  0
 24  5  1  0  0  0  0
 25  5  1  0  0  0  0
 26  6  1  0  0  0  0
 27  6  1  0  0  0  0
 28  7  1  0  0  0  0
 29  7  1  0  0  0  0
  8  4  1  0  0  0  0
 30  8  1  0  0  0  0
 31  8  1  0  0  0  0
 11 10  2  0  0  0  0
 12 10  1  0  0  0  0
 32 12  1  0  0  0  0
 13 12  1  0  0  0  0
 14 13  1  0  0  0  0
 33 14  1  0  0  0  0
 15 14  2  0  0  0  0
 34 15  1  0  0  0  0
 16 15  1  0  0  0  0
 35 16  1  0  0  0  0
 17 13  2  0  0  0  0
 18 16  2  0  0  0  0
 19 18  1  0  0  0  0
 20 19  1  0  0  0  0
 36 20  1  0  0  0  0
 37 20  1  0  0  0  0
 38 20  1  0  0  0  0
  9  8  1  0  0  0  0
 18 17  1  0  0  0  0
M  END
>  <FittedScore>
-35.75

$$$$
