A71EV2A-x4298a_best-RMSD
  FITTED

 38 39     0  0  0  0  0  0  0999 V2000
    9.8746   16.7238   19.2054 O    0  0  0  0  0  0  0  0  0  0  0  0
   10.2779   15.6578   19.6214 C    0  0  0  0  0  0  0  0  0  0  0  0
   10.7748   14.7659   18.7513 N    0  0  0  0  0  0  0  0  0  0  0  0
   10.1293   15.1894   21.0686 C    0  0  0  0  0  0  0  0  0  0  0  0
   11.2404   15.7814   21.9858 C    0  0  0  0  0  0  0  0  0  0  0  0
   11.0425   15.3243   23.4578 C    0  0  0  0  0  0  0  0  0  0  0  0
    9.5826   15.5216   23.9589 C    0  0  0  0  0  0  0  0  0  0  0  0
    8.7172   15.4977   21.6558 C    0  0  0  0  0  0  0  0  0  0  0  0
    8.5554   14.9336   23.0315 N    0  0  0  0  0  0  0  0  0  0  0  0
    7.7429   13.8536   23.2945 C    0  0  0  0  0  0  0  0  0  0  0  0
    7.2137   13.2021   22.4106 O    0  0  0  0  0  0  0  0  0  0  0  0
    7.5848   13.4957   24.5996 N    0  0  0  0  0  0  0  0  0  0  0  0
    7.2303   12.2087   25.1108 C    0  0  0  0  0  0  0  0  0  0  0  0
    6.3489   12.0787   26.1985 C    0  0  0  0  0  0  0  0  0  0  0  0
    5.9779   10.7916   26.6214 C    0  0  0  0  0  0  0  0  0  0  0  0
    6.5198    9.6783   25.9625 C    0  0  0  0  0  0  0  0  0  0  0  0
    7.7894   11.1208   24.5129 N    0  0  0  0  0  0  0  0  0  0  0  0
    7.4530    9.8702   24.9284 C    0  0  0  0  0  0  0  0  0  0  0  0
    8.0069    8.7540   24.3249 O    0  0  0  0  0  0  0  0  0  0  0  0
    9.1960    8.8041   23.4842 C    0  0  0  0  0  0  0  0  0  0  0  0
   10.9542   13.8101   19.0510 H    0  0  0  0  0  0  0  0  0  0  0  0
   10.7669   14.9788   17.7597 H    0  0  0  0  0  0  0  0  0  0  0  0
   10.2382   14.0977   21.0932 H    0  0  0  0  0  0  0  0  0  0  0  0
   12.2246   15.4580   21.6351 H    0  0  0  0  0  0  0  0  0  0  0  0
   11.2335   16.8734   21.9401 H    0  0  0  0  0  0  0  0  0  0  0  0
   11.3208   14.2725   23.5484 H    0  0  0  0  0  0  0  0  0  0  0  0
   11.7197   15.8813   24.1083 H    0  0  0  0  0  0  0  0  0  0  0  0
    9.5396   15.1123   24.9688 H    0  0  0  0  0  0  0  0  0  0  0  0
    9.3748   16.5893   24.0798 H    0  0  0  0  0  0  0  0  0  0  0  0
    7.9481   15.1503   20.9618 H    0  0  0  0  0  0  0  0  0  0  0  0
    8.5651   16.5802   21.7037 H    0  0  0  0  0  0  0  0  0  0  0  0
    7.7805   14.1827   25.3217 H    0  0  0  0  0  0  0  0  0  0  0  0
    5.9443   12.9575   26.6956 H    0  0  0  0  0  0  0  0  0  0  0  0
    5.2896   10.6593   27.4497 H    0  0  0  0  0  0  0  0  0  0  0  0
    6.2424    8.6713   26.2690 H    0  0  0  0  0  0  0  0  0  0  0  0
   10.0378    9.2118   24.0497 H    0  0  0  0  0  0  0  0  0  0  0  0
    9.0191    9.4305   22.6036 H    0  0  0  0  0  0  0  0  0  0  0  0
    9.4505    7.7952   23.1570 H    0  0  0  0  0  0  0  0  0  0  0  0
  9 10  1  0  0  0  0
  7  9  1  0  0  0  0
  6  7  1  0  0  0  0
  5  6  1  0  0  0  0
  4  5  1  0  0  0  0
  2  4  1  0  0  0  0
  1  2  2  0  0  0  0
  3  2  1  0  0  0  0
 21  3  1  0  0  0  0
 22  3  1  0  0  0  0
 23  4  1  0  0  0  0
 24  5  1  0  0  0  0
 25  5  1  0  0  0  0
 26  6  1  0  0  0  0
 27  6  1  0  0  0  0
 28  7  1  0  0  0  0
 29  7  1  0  0  0  0
  8  4  1  0  0  0  0
 30  8  1  0  0  0  0
 31  8  1  0  0  0  0
 11 10  2  0  0  0  0
 12 10  1  0  0  0  0
 32 12  1  0  0  0  0
 13 12  1  0  0  0  0
 14 13  1  0  0  0  0
 33 14  1  0  0  0  0
 15 14  2  0  0  0  0
 34 15  1  0  0  0  0
 16 15  1  0  0  0  0
 35 16  1  0  0  0  0
 17 13  2  0  0  0  0
 18 16  2  0  0  0  0
 19 18  1  0  0  0  0
 20 19  1  0  0  0  0
 36 20  1  0  0  0  0
 37 20  1  0  0  0  0
 38 20  1  0  0  0  0
  9  8  1  0  0  0  0
 18 17  1  0  0  0  0
M  END
>  <FittedScore>
-35.54

$$$$
