A71EV2A-x4806a_best-RMSD
  FITTED

 38 40     0  0  0  0  0  0  0999 V2000
    6.6543   13.2314   22.4161 O    0  0  0  0  0  0  0  0  0  0  0  0
    7.4326   13.7180   23.2246 C    0  0  0  0  0  0  0  0  0  0  0  0
    8.1646   14.8450   22.9174 N    0  0  0  0  0  0  0  0  0  0  0  0
    8.9642   15.6958   23.8626 C    0  0  0  0  0  0  0  0  0  0  0  0
   10.4916   15.6077   23.5828 C    0  0  0  0  0  0  0  0  0  0  0  0
   10.8163   15.9896   22.1108 C    0  0  0  0  0  0  0  0  0  0  0  0
    8.3756   15.3266   21.5136 C    0  0  0  0  0  0  0  0  0  0  0  0
    9.8807   15.2582   21.0989 C    0  0  0  0  0  0  0  0  0  0  0  0
   10.1008   15.7669   19.6748 C    0  0  0  0  0  0  0  0  0  0  0  0
    9.7116   16.8442   19.2677 O    0  0  0  0  0  0  0  0  0  0  0  0
   10.6506   14.8903   18.8166 N    0  0  0  0  0  0  0  0  0  0  0  0
    7.7039   12.9658   24.5444 C    0  0  0  0  0  0  0  0  0  0  0  0
    8.0042   11.5044   24.3045 C    0  0  0  0  0  0  0  0  0  0  0  0
    7.1581   10.6145   24.9558 C    0  0  0  0  0  0  0  0  0  0  0  0
    5.9327   11.3920   25.9502 S    0  0  0  0  0  0  0  0  0  0  0  0
    6.5072   13.0731   25.5290 C    0  0  0  0  0  0  0  0  0  0  0  0
    9.0600   11.0312   23.5127 C    0  0  0  0  0  0  0  0  0  0  0  0
    9.2355    9.6472   23.3627 C    0  0  0  0  0  0  0  0  0  0  0  0
    8.3623    8.7497   23.9981 C    0  0  0  0  0  0  0  0  0  0  0  0
    7.3177    9.2337   24.8054 C    0  0  0  0  0  0  0  0  0  0  0  0
    8.6481   16.7395   23.7550 H    0  0  0  0  0  0  0  0  0  0  0  0
    8.7636   15.4838   24.9126 H    0  0  0  0  0  0  0  0  0  0  0  0
   11.0316   16.2775   24.2588 H    0  0  0  0  0  0  0  0  0  0  0  0
   10.8431   14.5919   23.7887 H    0  0  0  0  0  0  0  0  0  0  0  0
   10.7309   17.0743   21.9917 H    0  0  0  0  0  0  0  0  0  0  0  0
   11.8568   15.7298   21.8967 H    0  0  0  0  0  0  0  0  0  0  0  0
    8.0043   16.3535   21.4185 H    0  0  0  0  0  0  0  0  0  0  0  0
    7.8012   14.7484   20.7841 H    0  0  0  0  0  0  0  0  0  0  0  0
   10.1540   14.1962   21.1426 H    0  0  0  0  0  0  0  0  0  0  0  0
   10.7299   15.1339   17.8343 H    0  0  0  0  0  0  0  0  0  0  0  0
   10.8213   13.9302   19.1037 H    0  0  0  0  0  0  0  0  0  0  0  0
    8.5944   13.3208   25.0615 H    0  0  0  0  0  0  0  0  0  0  0  0
    5.6618   13.6297   25.1092 H    0  0  0  0  0  0  0  0  0  0  0  0
    6.8122   13.5773   26.4495 H    0  0  0  0  0  0  0  0  0  0  0  0
    9.7332   11.7267   23.0148 H    0  0  0  0  0  0  0  0  0  0  0  0
   10.0490    9.2745   22.7458 H    0  0  0  0  0  0  0  0  0  0  0  0
    8.4968    7.6790   23.8710 H    0  0  0  0  0  0  0  0  0  0  0  0
    6.6473    8.5437   25.3107 H    0  0  0  0  0  0  0  0  0  0  0  0
  3  2  1  0  0  0  0
  4  3  1  0  0  0  0
 21  4  1  0  0  0  0
  1  2  2  0  0  0  0
 22  4  1  0  0  0  0
  5  4  1  0  0  0  0
 23  5  1  0  0  0  0
 24  5  1  0  0  0  0
  6  5  1  0  0  0  0
 25  6  1  0  0  0  0
 26  6  1  0  0  0  0
  7  3  1  0  0  0  0
 27  7  1  0  0  0  0
 28  7  1  0  0  0  0
  8  6  1  0  0  0  0
  9  8  1  0  0  0  0
 29  8  1  0  0  0  0
 10  9  2  0  0  0  0
 11  9  1  0  0  0  0
 30 11  1  0  0  0  0
 31 11  1  0  0  0  0
 12  2  1  0  0  0  0
 16 12  1  0  0  0  0
 32 12  1  0  0  0  0
 13 12  1  0  0  0  0
 14 13  1  0  0  0  0
 20 14  2  0  0  0  0
 15 14  1  0  0  0  0
 33 16  1  0  0  0  0
 34 16  1  0  0  0  0
 17 13  2  0  0  0  0
 35 17  1  0  0  0  0
 18 17  1  0  0  0  0
 36 18  1  0  0  0  0
 19 18  2  0  0  0  0
 37 19  1  0  0  0  0
 38 20  1  0  0  0  0
  8  7  1  0  0  0  0
 16 15  1  0  0  0  0
 20 19  1  0  0  0  0
M  END
>  <FittedScore>
-36.33

$$$$
