A71EV2A-x5015a_best-RMSD
  FITTED

 39 40     0  0  0  0  0  0  0999 V2000
    9.8693   16.9097   19.1281 O    0  0  0  0  0  0  0  0  0  0  0  0
   10.2475   15.8215   19.5281 C    0  0  0  0  0  0  0  0  0  0  0  0
   10.6145   14.8415   18.6804 N    0  0  0  0  0  0  0  0  0  0  0  0
   10.2724   15.4116   20.9930 C    0  0  0  0  0  0  0  0  0  0  0  0
   11.3596   16.2010   21.7783 C    0  0  0  0  0  0  0  0  0  0  0  0
   11.3439   15.8141   23.2845 C    0  0  0  0  0  0  0  0  0  0  0  0
    9.9019   15.8055   23.8761 C    0  0  0  0  0  0  0  0  0  0  0  0
    8.8715   15.5196   21.6711 C    0  0  0  0  0  0  0  0  0  0  0  0
    8.9429   14.9758   23.0659 N    0  0  0  0  0  0  0  0  0  0  0  0
    8.3551   13.7837   23.4356 C    0  0  0  0  0  0  0  0  0  0  0  0
    7.5549   13.2240   22.7029 O    0  0  0  0  0  0  0  0  0  0  0  0
    8.8426   13.0955   24.7188 C    0  0  0  0  0  0  0  0  0  0  0  0
    8.3953   11.6478   24.8197 C    0  0  0  0  0  0  0  0  0  0  0  0
    9.0227   10.6574   24.0371 C    0  0  0  0  0  0  0  0  0  0  0  0
    8.5245    9.3505   24.0804 C    0  0  0  0  0  0  0  0  0  0  0  0
    7.4345    9.0730   24.9145 C    0  0  0  0  0  0  0  0  0  0  0  0
    7.3390   11.3664   25.6311 N    0  0  0  0  0  0  0  0  0  0  0  0
    6.8631   10.0925   25.6998 C    0  0  0  0  0  0  0  0  0  0  0  0
    5.7364    9.7359   26.6250 C    0  0  0  0  0  0  0  0  0  0  0  0
    5.1027   10.6348   27.3776 C    0  0  0  0  0  0  0  0  0  0  0  0
   10.6783   15.0306   17.6924 H    0  0  0  0  0  0  0  0  0  0  0  0
   10.7888   13.8971   19.0213 H    0  0  0  0  0  0  0  0  0  0  0  0
   10.5549   14.3524   21.0590 H    0  0  0  0  0  0  0  0  0  0  0  0
   12.3450   15.9795   21.3577 H    0  0  0  0  0  0  0  0  0  0  0  0
   11.1970   17.2795   21.6750 H    0  0  0  0  0  0  0  0  0  0  0  0
   11.8035   14.8273   23.4106 H    0  0  0  0  0  0  0  0  0  0  0  0
   11.9700   16.5190   23.8410 H    0  0  0  0  0  0  0  0  0  0  0  0
    9.9633   15.4980   24.9201 H    0  0  0  0  0  0  0  0  0  0  0  0
    9.5335   16.8356   23.9173 H    0  0  0  0  0  0  0  0  0  0  0  0
    8.1383   14.9951   21.0492 H    0  0  0  0  0  0  0  0  0  0  0  0
    8.5339   16.5619   21.6835 H    0  0  0  0  0  0  0  0  0  0  0  0
    9.9350   13.1094   24.7549 H    0  0  0  0  0  0  0  0  0  0  0  0
    8.4896   13.6603   25.5916 H    0  0  0  0  0  0  0  0  0  0  0  0
    9.8558   10.9014   23.3829 H    0  0  0  0  0  0  0  0  0  0  0  0
    8.9682    8.5694   23.4693 H    0  0  0  0  0  0  0  0  0  0  0  0
    7.0451    8.0555   24.9538 H    0  0  0  0  0  0  0  0  0  0  0  0
    5.3974    8.7050   26.7114 H    0  0  0  0  0  0  0  0  0  0  0  0
    5.3553   11.6933   27.3818 H    0  0  0  0  0  0  0  0  0  0  0  0
    4.2975   10.3058   28.0293 H    0  0  0  0  0  0  0  0  0  0  0  0
  9 10  1  0  0  0  0
  7  9  1  0  0  0  0
  6  7  1  0  0  0  0
  5  6  1  0  0  0  0
  4  5  1  0  0  0  0
  2  4  1  0  0  0  0
  1  2  2  0  0  0  0
  3  2  1  0  0  0  0
 21  3  1  0  0  0  0
 22  3  1  0  0  0  0
 23  4  1  0  0  0  0
 24  5  1  0  0  0  0
 25  5  1  0  0  0  0
 26  6  1  0  0  0  0
 27  6  1  0  0  0  0
 28  7  1  0  0  0  0
 29  7  1  0  0  0  0
  8  4  1  0  0  0  0
 30  8  1  0  0  0  0
 31  8  1  0  0  0  0
 11 10  2  0  0  0  0
 12 10  1  0  0  0  0
 32 12  1  0  0  0  0
 33 12  1  0  0  0  0
 13 12  1  0  0  0  0
 14 13  1  0  0  0  0
 34 14  1  0  0  0  0
 15 14  2  0  0  0  0
 35 15  1  0  0  0  0
 16 15  1  0  0  0  0
 36 16  1  0  0  0  0
 17 13  2  0  0  0  0
 18 16  2  0  0  0  0
 19 18  1  0  0  0  0
 37 19  1  0  0  0  0
 20 19  2  0  0  0  0
 38 20  1  0  0  0  0
 39 20  1  0  0  0  0
  9  8  1  0  0  0  0
 18 17  1  0  0  0  0
M  END
>  <FittedScore>
-35.57

$$$$
