A71EV2A-x5425a_best-RMSD
  FITTED

 33 34     0  0  0  0  0  0  0999 V2000
    6.9234   13.0986   22.7068 O    0  0  0  0  0  0  0  0  0  0  0  0
    7.6857   13.6402   23.4891 C    0  0  0  0  0  0  0  0  0  0  0  0
    8.4045   14.7595   23.1208 N    0  0  0  0  0  0  0  0  0  0  0  0
    9.2533   15.6299   24.0018 C    0  0  0  0  0  0  0  0  0  0  0  0
   10.7519   15.6266   23.5918 C    0  0  0  0  0  0  0  0  0  0  0  0
   10.9318   16.0203   22.1008 C    0  0  0  0  0  0  0  0  0  0  0  0
    8.4987   15.2410   21.7016 C    0  0  0  0  0  0  0  0  0  0  0  0
    9.9697   15.2177   21.1729 C    0  0  0  0  0  0  0  0  0  0  0  0
   10.0731   15.7022   19.7244 C    0  0  0  0  0  0  0  0  0  0  0  0
    9.7234   16.8079   19.3431 O    0  0  0  0  0  0  0  0  0  0  0  0
   10.5257   14.7875   18.8452 N    0  0  0  0  0  0  0  0  0  0  0  0
    7.9114   12.9348   24.8354 C    0  0  0  0  0  0  0  0  0  0  0  0
    8.3018   11.4772   24.6274 C    0  0  0  0  0  0  0  0  0  0  0  0
    9.4147   11.0920   23.8884 C    0  0  0  0  0  0  0  0  0  0  0  0
    9.5684    9.3415   23.7465 S    0  0  0  0  0  0  0  0  0  0  0  0
    8.0597    9.1844   24.6478 C    0  0  0  0  0  0  0  0  0  0  0  0
    7.5439   10.4011   25.0601 C    0  0  0  0  0  0  0  0  0  0  0  0
    8.8751   16.6561   23.9384 H    0  0  0  0  0  0  0  0  0  0  0  0
    9.1745   15.3974   25.0595 H    0  0  0  0  0  0  0  0  0  0  0  0
   11.3002   16.3343   24.2190 H    0  0  0  0  0  0  0  0  0  0  0  0
   11.1774   14.6350   23.7716 H    0  0  0  0  0  0  0  0  0  0  0  0
   10.7557   17.0949   21.9918 H    0  0  0  0  0  0  0  0  0  0  0  0
   11.9696   15.8447   21.7985 H    0  0  0  0  0  0  0  0  0  0  0  0
    8.0877   16.2524   21.6365 H    0  0  0  0  0  0  0  0  0  0  0  0
    7.8886   14.6492   21.0162 H    0  0  0  0  0  0  0  0  0  0  0  0
   10.2918   14.1690   21.2318 H    0  0  0  0  0  0  0  0  0  0  0  0
   10.7074   13.8301   19.1420 H    0  0  0  0  0  0  0  0  0  0  0  0
   10.5471   15.0082   17.8565 H    0  0  0  0  0  0  0  0  0  0  0  0
    6.9843   13.0059   25.4126 H    0  0  0  0  0  0  0  0  0  0  0  0
    8.6799   13.3616   25.4745 H    0  0  0  0  0  0  0  0  0  0  0  0
   10.1060   11.7890   23.4196 H    0  0  0  0  0  0  0  0  0  0  0  0
    7.5949    8.2263   24.8569 H    0  0  0  0  0  0  0  0  0  0  0  0
    6.6202   10.4964   25.6256 H    0  0  0  0  0  0  0  0  0  0  0  0
  3  2  1  0  0  0  0
  4  3  1  0  0  0  0
 18  4  1  0  0  0  0
  1  2  2  0  0  0  0
 19  4  1  0  0  0  0
  5  4  1  0  0  0  0
 20  5  1  0  0  0  0
 21  5  1  0  0  0  0
  6  5  1  0  0  0  0
 22  6  1  0  0  0  0
 23  6  1  0  0  0  0
  7  3  1  0  0  0  0
 24  7  1  0  0  0  0
 25  7  1  0  0  0  0
  8  6  1  0  0  0  0
  9  8  1  0  0  0  0
 26  8  1  0  0  0  0
 10  9  2  0  0  0  0
 11  9  1  0  0  0  0
 27 11  1  0  0  0  0
 28 11  1  0  0  0  0
 12  2  1  0  0  0  0
 29 12  1  0  0  0  0
 30 12  1  0  0  0  0
 13 12  1  0  0  0  0
 17 13  1  0  0  0  0
 14 13  2  0  0  0  0
 31 14  1  0  0  0  0
 15 14  1  0  0  0  0
 16 15  1  0  0  0  0
 32 16  1  0  0  0  0
 33 17  1  0  0  0  0
  8  7  1  0  0  0  0
 17 16  2  0  0  0  0
M  END
>  <FittedScore>
-32.04

$$$$
