A71EV2A-x5425a_lowest-energy
  FITTED

 33 34     0  0  0  0  0  0  0999 V2000
    6.9630   13.0692   22.6954 O    0  0  0  0  0  0  0  0  0  0  0  0
    7.7578   13.6240   23.4385 C    0  0  0  0  0  0  0  0  0  0  0  0
    8.4227   14.7615   23.0446 N    0  0  0  0  0  0  0  0  0  0  0  0
    9.1910   15.6991   23.9261 C    0  0  0  0  0  0  0  0  0  0  0  0
   10.7076   15.7233   23.5847 C    0  0  0  0  0  0  0  0  0  0  0  0
   10.9408   16.0955   22.0923 C    0  0  0  0  0  0  0  0  0  0  0  0
    8.5490   15.1971   21.6177 C    0  0  0  0  0  0  0  0  0  0  0  0
   10.0382   15.2483   21.1409 C    0  0  0  0  0  0  0  0  0  0  0  0
   10.1485   15.7376   19.6946 C    0  0  0  0  0  0  0  0  0  0  0  0
    9.7419   16.8210   19.3083 O    0  0  0  0  0  0  0  0  0  0  0  0
   10.6017   14.8189   18.8204 N    0  0  0  0  0  0  0  0  0  0  0  0
    8.0927   12.9545   24.7791 C    0  0  0  0  0  0  0  0  0  0  0  0
    8.3548   11.4665   24.6172 C    0  0  0  0  0  0  0  0  0  0  0  0
    9.4553   10.9603   23.9380 C    0  0  0  0  0  0  0  0  0  0  0  0
    9.4752    9.1976   23.8799 S    0  0  0  0  0  0  0  0  0  0  0  0
    7.9333    9.2075   24.7416 C    0  0  0  0  0  0  0  0  0  0  0  0
    7.5002   10.4779   25.0773 C    0  0  0  0  0  0  0  0  0  0  0  0
    8.7865   16.7096   23.8016 H    0  0  0  0  0  0  0  0  0  0  0  0
    9.0567   15.5049   24.9890 H    0  0  0  0  0  0  0  0  0  0  0  0
   11.2160   16.4535   24.2225 H    0  0  0  0  0  0  0  0  0  0  0  0
   11.1518   14.7446   23.7989 H    0  0  0  0  0  0  0  0  0  0  0  0
   10.7436   17.1629   21.9544 H    0  0  0  0  0  0  0  0  0  0  0  0
   11.9932   15.9367   21.8376 H    0  0  0  0  0  0  0  0  0  0  0  0
    8.0735   16.1773   21.5013 H    0  0  0  0  0  0  0  0  0  0  0  0
    8.0067   14.5350   20.9364 H    0  0  0  0  0  0  0  0  0  0  0  0
   10.4103   14.2167   21.2098 H    0  0  0  0  0  0  0  0  0  0  0  0
   10.6238   15.0391   17.8331 H    0  0  0  0  0  0  0  0  0  0  0  0
   10.7749   13.8596   19.1213 H    0  0  0  0  0  0  0  0  0  0  0  0
    7.2690   13.1359   25.4754 H    0  0  0  0  0  0  0  0  0  0  0  0
    8.9908   13.3491   25.2536 H    0  0  0  0  0  0  0  0  0  0  0  0
   10.2202   11.5731   23.4675 H    0  0  0  0  0  0  0  0  0  0  0  0
    7.3803    8.3029   24.9809 H    0  0  0  0  0  0  0  0  0  0  0  0
    6.5735   10.6770   25.6118 H    0  0  0  0  0  0  0  0  0  0  0  0
  3  2  1  0  0  0  0
  4  3  1  0  0  0  0
 18  4  1  0  0  0  0
  1  2  2  0  0  0  0
 19  4  1  0  0  0  0
  5  4  1  0  0  0  0
 20  5  1  0  0  0  0
 21  5  1  0  0  0  0
  6  5  1  0  0  0  0
 22  6  1  0  0  0  0
 23  6  1  0  0  0  0
  7  3  1  0  0  0  0
 24  7  1  0  0  0  0
 25  7  1  0  0  0  0
  8  6  1  0  0  0  0
  9  8  1  0  0  0  0
 26  8  1  0  0  0  0
 10  9  2  0  0  0  0
 11  9  1  0  0  0  0
 27 11  1  0  0  0  0
 28 11  1  0  0  0  0
 12  2  1  0  0  0  0
 29 12  1  0  0  0  0
 30 12  1  0  0  0  0
 13 12  1  0  0  0  0
 17 13  1  0  0  0  0
 14 13  2  0  0  0  0
 31 14  1  0  0  0  0
 15 14  1  0  0  0  0
 16 15  1  0  0  0  0
 32 16  1  0  0  0  0
 33 17  1  0  0  0  0
  8  7  1  0  0  0  0
 17 16  2  0  0  0  0
M  END
>  <FittedScore>
-32.75

$$$$
