A71EV2A-x4546a_lowest-energy
  FITTED

 37 39     0  0  0  0  0  0  0999 V2000
   10.4919   14.9489   25.2447 O    0  0  0  0  0  0  0  0  0  0  0  0
   10.4685   15.1023   24.0356 C    0  0  0  0  0  0  0  0  0  0  0  0
   11.7635   15.5199   23.3226 C    0  0  0  0  0  0  0  0  0  0  0  0
   11.5893   16.0564   21.8752 C    0  0  0  0  0  0  0  0  0  0  0  0
    9.3575   14.7916   23.2787 N    0  0  0  0  0  0  0  0  0  0  0  0
    9.2384   15.0761   21.8168 C    0  0  0  0  0  0  0  0  0  0  0  0
   10.6064   15.1554   21.0837 C    0  0  0  0  0  0  0  0  0  0  0  0
   10.4695   15.5760   19.6148 C    0  0  0  0  0  0  0  0  0  0  0  0
    9.7904   16.5045   19.2227 O    0  0  0  0  0  0  0  0  0  0  0  0
   10.9609   14.7064   18.7158 N    0  0  0  0  0  0  0  0  0  0  0  0
    8.1822   14.0531   23.8300 C    0  0  0  0  0  0  0  0  0  0  0  0
    8.3961   12.5328   23.9455 C    0  0  0  0  0  0  0  0  0  0  0  0
    7.5611   11.7673   24.7792 C    0  0  0  0  0  0  0  0  0  0  0  0
    6.5528   12.1342   25.6161 N    0  0  0  0  0  0  0  0  0  0  0  0
    6.0629   11.0272   26.2304 C    0  0  0  0  0  0  0  0  0  0  0  0
    6.6652    9.9074   25.8535 C    0  0  0  0  0  0  0  0  0  0  0  0
    7.6690   10.3881   24.8750 C    0  0  0  0  0  0  0  0  0  0  0  0
    8.6385    9.6864   24.1510 C    0  0  0  0  0  0  0  0  0  0  0  0
    9.4960   10.4148   23.3170 C    0  0  0  0  0  0  0  0  0  0  0  0
    9.3750   11.8168   23.2083 C    0  0  0  0  0  0  0  0  0  0  0  0
   12.2603   16.2888   23.9192 H    0  0  0  0  0  0  0  0  0  0  0  0
   12.4388   14.6596   23.2988 H    0  0  0  0  0  0  0  0  0  0  0  0
   11.2119   17.0822   21.9033 H    0  0  0  0  0  0  0  0  0  0  0  0
   12.5643   16.0787   21.3786 H    0  0  0  0  0  0  0  0  0  0  0  0
    8.7009   16.0231   21.7058 H    0  0  0  0  0  0  0  0  0  0  0  0
    8.6388   14.3137   21.3059 H    0  0  0  0  0  0  0  0  0  0  0  0
   11.0234   14.1413   21.1111 H    0  0  0  0  0  0  0  0  0  0  0  0
   11.2443   13.7713   19.0077 H    0  0  0  0  0  0  0  0  0  0  0  0
   10.8928   14.9177   17.7280 H    0  0  0  0  0  0  0  0  0  0  0  0
    7.2809   14.2173   23.2311 H    0  0  0  0  0  0  0  0  0  0  0  0
    7.9381   14.4799   24.8077 H    0  0  0  0  0  0  0  0  0  0  0  0
    6.3397   13.1018   25.8325 H    0  0  0  0  0  0  0  0  0  0  0  0
    5.2537   11.1194   26.9508 H    0  0  0  0  0  0  0  0  0  0  0  0
    6.4466    8.9008   26.2171 H    0  0  0  0  0  0  0  0  0  0  0  0
    8.7473    8.6087   24.2487 H    0  0  0  0  0  0  0  0  0  0  0  0
   10.2687    9.8948   22.7569 H    0  0  0  0  0  0  0  0  0  0  0  0
   10.0618   12.3286   22.5439 H    0  0  0  0  0  0  0  0  0  0  0  0
  2  5  1  0  0  0  0
  3  2  1  0  0  0  0
 21  3  1  0  0  0  0
  1  2  2  0  0  0  0
 22  3  1  0  0  0  0
  4  3  1  0  0  0  0
 23  4  1  0  0  0  0
 24  4  1  0  0  0  0
  6  5  1  0  0  0  0
 25  6  1  0  0  0  0
 26  6  1  0  0  0  0
  7  4  1  0  0  0  0
  8  7  1  0  0  0  0
 27  7  1  0  0  0  0
  9  8  2  0  0  0  0
 10  8  1  0  0  0  0
 28 10  1  0  0  0  0
 29 10  1  0  0  0  0
 11  5  1  0  0  0  0
 30 11  1  0  0  0  0
 31 11  1  0  0  0  0
 12 11  1  0  0  0  0
 20 12  1  0  0  0  0
 13 12  2  0  0  0  0
 14 13  1  0  0  0  0
 32 14  1  0  0  0  0
 15 14  1  0  0  0  0
 33 15  1  0  0  0  0
 16 15  2  0  0  0  0
 34 16  1  0  0  0  0
 17 16  1  0  0  0  0
 18 17  2  0  0  0  0
 35 18  1  0  0  0  0
 19 18  1  0  0  0  0
 36 19  1  0  0  0  0
 37 20  1  0  0  0  0
  7  6  1  0  0  0  0
 17 13  1  0  0  0  0
 20 19  2  0  0  0  0
M  END
>  <FittedScore>
-31.01

$$$$
