A71EV2A-x4546a_best-RMSD
  FITTED

 37 39     0  0  0  0  0  0  0999 V2000
   10.6771   14.8308   25.2136 O    0  0  0  0  0  0  0  0  0  0  0  0
   10.5965   15.0503   24.0165 C    0  0  0  0  0  0  0  0  0  0  0  0
   11.8731   15.4501   23.2595 C    0  0  0  0  0  0  0  0  0  0  0  0
   11.6563   15.9995   21.8198 C    0  0  0  0  0  0  0  0  0  0  0  0
    9.4450   14.7935   23.3027 N    0  0  0  0  0  0  0  0  0  0  0  0
    9.2815   15.0979   21.8495 C    0  0  0  0  0  0  0  0  0  0  0  0
   10.6248   15.1269   21.0709 C    0  0  0  0  0  0  0  0  0  0  0  0
   10.4592   15.5538   19.6095 C    0  0  0  0  0  0  0  0  0  0  0  0
    9.7927   16.4939   19.2289 O    0  0  0  0  0  0  0  0  0  0  0  0
   10.9333   14.6900   18.7004 N    0  0  0  0  0  0  0  0  0  0  0  0
    8.2559   14.1085   23.8947 C    0  0  0  0  0  0  0  0  0  0  0  0
    8.3895   12.5758   23.9981 C    0  0  0  0  0  0  0  0  0  0  0  0
    7.5244   11.8502   24.8398 C    0  0  0  0  0  0  0  0  0  0  0  0
    6.5270   12.2577   25.6712 N    0  0  0  0  0  0  0  0  0  0  0  0
    5.9941   11.1730   26.2866 C    0  0  0  0  0  0  0  0  0  0  0  0
    6.5418   10.0251   25.9060 C    0  0  0  0  0  0  0  0  0  0  0  0
    7.5777   10.4673   24.9399 C    0  0  0  0  0  0  0  0  0  0  0  0
    8.4981    9.7195   24.2019 C    0  0  0  0  0  0  0  0  0  0  0  0
    9.3905   10.4080   23.3649 C    0  0  0  0  0  0  0  0  0  0  0  0
    9.3336   11.8136   23.2574 C    0  0  0  0  0  0  0  0  0  0  0  0
   12.4217   16.1981   23.8406 H    0  0  0  0  0  0  0  0  0  0  0  0
   12.5246   14.5708   23.1997 H    0  0  0  0  0  0  0  0  0  0  0  0
   11.3198   17.0401   21.8664 H    0  0  0  0  0  0  0  0  0  0  0  0
   12.6131   15.9963   21.2848 H    0  0  0  0  0  0  0  0  0  0  0  0
    8.7841   16.0684   21.7664 H    0  0  0  0  0  0  0  0  0  0  0  0
    8.6297   14.3655   21.3630 H    0  0  0  0  0  0  0  0  0  0  0  0
   11.0086   14.0994   21.0939 H    0  0  0  0  0  0  0  0  0  0  0  0
   11.2086   13.7538   18.9842 H    0  0  0  0  0  0  0  0  0  0  0  0
   10.8684   14.9122   17.7150 H    0  0  0  0  0  0  0  0  0  0  0  0
    7.3422   14.3445   23.3397 H    0  0  0  0  0  0  0  0  0  0  0  0
    8.0754   14.5276   24.8882 H    0  0  0  0  0  0  0  0  0  0  0  0
    6.4232   13.2285   25.9548 H    0  0  0  0  0  0  0  0  0  0  0  0
    5.1913   11.3020   27.0086 H    0  0  0  0  0  0  0  0  0  0  0  0
    6.2659    9.0286   26.2473 H    0  0  0  0  0  0  0  0  0  0  0  0
    8.5262    8.6333   24.2721 H    0  0  0  0  0  0  0  0  0  0  0  0
   10.1256    9.8536   22.7860 H    0  0  0  0  0  0  0  0  0  0  0  0
   10.0368   12.2886   22.5813 H    0  0  0  0  0  0  0  0  0  0  0  0
  2  5  1  0  0  0  0
  3  2  1  0  0  0  0
 21  3  1  0  0  0  0
  1  2  2  0  0  0  0
 22  3  1  0  0  0  0
  4  3  1  0  0  0  0
 23  4  1  0  0  0  0
 24  4  1  0  0  0  0
  6  5  1  0  0  0  0
 25  6  1  0  0  0  0
 26  6  1  0  0  0  0
  7  4  1  0  0  0  0
  8  7  1  0  0  0  0
 27  7  1  0  0  0  0
  9  8  2  0  0  0  0
 10  8  1  0  0  0  0
 28 10  1  0  0  0  0
 29 10  1  0  0  0  0
 11  5  1  0  0  0  0
 30 11  1  0  0  0  0
 31 11  1  0  0  0  0
 12 11  1  0  0  0  0
 20 12  1  0  0  0  0
 13 12  2  0  0  0  0
 14 13  1  0  0  0  0
 32 14  1  0  0  0  0
 15 14  1  0  0  0  0
 33 15  1  0  0  0  0
 16 15  2  0  0  0  0
 34 16  1  0  0  0  0
 17 16  1  0  0  0  0
 18 17  2  0  0  0  0
 35 18  1  0  0  0  0
 19 18  1  0  0  0  0
 36 19  1  0  0  0  0
 37 20  1  0  0  0  0
  7  6  1  0  0  0  0
 17 13  1  0  0  0  0
 20 19  2  0  0  0  0
M  END
>  <FittedScore>
-30.97

$$$$
