A71EV2A-x3940a_lowest-energy
  FITTED

 40 41     0  0  0  0  0  0  0999 V2000
    9.8249   16.8726   18.9494 O    0  0  0  0  0  0  0  0  0  0  0  0
   10.3140   15.8281   19.3370 C    0  0  0  0  0  0  0  0  0  0  0  0
   10.7251   14.9082   18.4419 N    0  0  0  0  0  0  0  0  0  0  0  0
   10.4121   15.4050   20.8091 C    0  0  0  0  0  0  0  0  0  0  0  0
   11.2797   16.3941   21.6411 C    0  0  0  0  0  0  0  0  0  0  0  0
   11.4205   15.8654   23.0902 C    0  0  0  0  0  0  0  0  0  0  0  0
   10.0372   15.5431   23.7280 C    0  0  0  0  0  0  0  0  0  0  0  0
    9.0218   15.1914   21.4938 C    0  0  0  0  0  0  0  0  0  0  0  0
    9.1238   14.6650   22.9005 N    0  0  0  0  0  0  0  0  0  0  0  0
    8.3656   13.6075   23.3797 C    0  0  0  0  0  0  0  0  0  0  0  0
    7.5096   13.0762   22.6883 O    0  0  0  0  0  0  0  0  0  0  0  0
    8.6080   13.1212   24.8198 C    0  0  0  0  0  0  0  0  0  0  0  0
    7.8296   11.8735   25.2543 C    0  0  0  0  0  0  0  0  0  0  0  0
    8.1960   10.5851   24.8045 C    0  0  0  0  0  0  0  0  0  0  0  0
    9.1953   10.4744   23.8482 O    0  0  0  0  0  0  0  0  0  0  0  0
    9.7789    9.2392   23.3856 C    0  0  0  0  0  0  0  0  0  0  0  0
    6.7388   12.0115   26.1338 C    0  0  0  0  0  0  0  0  0  0  0  0
    6.0339   10.8811   26.5782 C    0  0  0  0  0  0  0  0  0  0  0  0
    4.6712   11.0636   27.6266 CL   0  0  0  0  0  0  0  0  0  0  0  0
    6.4374    9.6026   26.1765 C    0  0  0  0  0  0  0  0  0  0  0  0
    7.5071    9.4569   25.2860 C    0  0  0  0  0  0  0  0  0  0  0  0
   10.6833   15.1306   17.4492 H    0  0  0  0  0  0  0  0  0  0  0  0
   10.9620   13.9681   18.7569 H    0  0  0  0  0  0  0  0  0  0  0  0
   10.9232   14.4342   20.8476 H    0  0  0  0  0  0  0  0  0  0  0  0
   12.2687   16.5064   21.1864 H    0  0  0  0  0  0  0  0  0  0  0  0
   10.8199   17.3882   21.6504 H    0  0  0  0  0  0  0  0  0  0  0  0
   12.0422   14.9659   23.0976 H    0  0  0  0  0  0  0  0  0  0  0  0
   11.9379   16.6084   23.7014 H    0  0  0  0  0  0  0  0  0  0  0  0
   10.2663   15.1318   24.7062 H    0  0  0  0  0  0  0  0  0  0  0  0
    9.5127   16.4793   23.9326 H    0  0  0  0  0  0  0  0  0  0  0  0
    8.4422   14.5205   20.8528 H    0  0  0  0  0  0  0  0  0  0  0  0
    8.4635   16.1327   21.5078 H    0  0  0  0  0  0  0  0  0  0  0  0
    9.6692   12.8810   24.9374 H    0  0  0  0  0  0  0  0  0  0  0  0
    8.4268   13.9415   25.5174 H    0  0  0  0  0  0  0  0  0  0  0  0
   10.5111    9.4157   22.5954 H    0  0  0  0  0  0  0  0  0  0  0  0
    9.0032    8.5822   22.9855 H    0  0  0  0  0  0  0  0  0  0  0  0
   10.2991    8.7672   24.2238 H    0  0  0  0  0  0  0  0  0  0  0  0
    6.4252   12.9989   26.4652 H    0  0  0  0  0  0  0  0  0  0  0  0
    5.9037    8.7209   26.5265 H    0  0  0  0  0  0  0  0  0  0  0  0
    7.7625    8.4572   24.9465 H    0  0  0  0  0  0  0  0  0  0  0  0
  9 10  1  0  0  0  0
  7  9  1  0  0  0  0
  6  7  1  0  0  0  0
  5  6  1  0  0  0  0
  4  5  1  0  0  0  0
  2  4  1  0  0  0  0
  1  2  2  0  0  0  0
  3  2  1  0  0  0  0
 22  3  1  0  0  0  0
 23  3  1  0  0  0  0
 24  4  1  0  0  0  0
 25  5  1  0  0  0  0
 26  5  1  0  0  0  0
 27  6  1  0  0  0  0
 28  6  1  0  0  0  0
 29  7  1  0  0  0  0
 30  7  1  0  0  0  0
  8  4  1  0  0  0  0
 31  8  1  0  0  0  0
 32  8  1  0  0  0  0
 11 10  2  0  0  0  0
 12 10  1  0  0  0  0
 33 12  1  0  0  0  0
 34 12  1  0  0  0  0
 13 12  1  0  0  0  0
 14 13  1  0  0  0  0
 21 14  2  0  0  0  0
 15 14  1  0  0  0  0
 16 15  1  0  0  0  0
 35 16  1  0  0  0  0
 36 16  1  0  0  0  0
 37 16  1  0  0  0  0
 17 13  2  0  0  0  0
 38 17  1  0  0  0  0
 18 17  1  0  0  0  0
 19 18  1  0  0  0  0
 20 18  2  0  0  0  0
 39 20  1  0  0  0  0
 40 21  1  0  0  0  0
  9  8  1  0  0  0  0
 21 20  1  0  0  0  0
M  END
>  <FittedScore>
-30.66

$$$$
