A71EV2A-x4494a_best-RMSD
  FITTED

 41 43     0  0  0  0  0  0  0999 V2000
    9.8045   17.0188   18.8713 O    0  0  0  0  0  0  0  0  0  0  0  0
   10.3058   16.0298   19.3671 C    0  0  0  0  0  0  0  0  0  0  0  0
   10.6347   14.9993   18.5748 N    0  0  0  0  0  0  0  0  0  0  0  0
   10.2588   15.7263   20.8633 C    0  0  0  0  0  0  0  0  0  0  0  0
   11.0570   16.7791   21.6993 C    0  0  0  0  0  0  0  0  0  0  0  0
   10.8024   16.6359   23.2277 C    0  0  0  0  0  0  0  0  0  0  0  0
    9.2913   16.4778   23.5588 C    0  0  0  0  0  0  0  0  0  0  0  0
    8.7790   15.6052   21.3400 C    0  0  0  0  0  0  0  0  0  0  0  0
    8.6807   15.3365   22.8123 N    0  0  0  0  0  0  0  0  0  0  0  0
    8.1403   14.1809   23.3347 C    0  0  0  0  0  0  0  0  0  0  0  0
    7.5159   13.4362   22.5901 O    0  0  0  0  0  0  0  0  0  0  0  0
    8.3052   13.8199   24.8448 C    0  0  0  0  0  0  0  0  0  0  0  0
    9.7739   13.8538   25.3968 C    0  0  0  0  0  0  0  0  0  0  0  0
    7.7312   12.4267   25.1018 C    0  0  0  0  0  0  0  0  0  0  0  0
    8.3122   11.1996   24.5717 C    0  0  0  0  0  0  0  0  0  0  0  0
    7.4422   10.2205   24.9395 C    0  0  0  0  0  0  0  0  0  0  0  0
    6.4037   10.7324   25.6829 O    0  0  0  0  0  0  0  0  0  0  0  0
    6.6348   12.1482   25.7424 N    0  0  0  0  0  0  0  0  0  0  0  0
    9.4373   10.9423   23.7741 C    0  0  0  0  0  0  0  0  0  0  0  0
    9.6896    9.6160   23.3929 C    0  0  0  0  0  0  0  0  0  0  0  0
    8.8053    8.5955   23.7792 C    0  0  0  0  0  0  0  0  0  0  0  0
    7.6620    8.9059   24.5389 C    0  0  0  0  0  0  0  0  0  0  0  0
   10.6130   15.1205   17.5679 H    0  0  0  0  0  0  0  0  0  0  0  0
   10.7397   14.0582   18.9541 H    0  0  0  0  0  0  0  0  0  0  0  0
   10.7403   14.7598   21.0576 H    0  0  0  0  0  0  0  0  0  0  0  0
   12.1269   16.6697   21.4999 H    0  0  0  0  0  0  0  0  0  0  0  0
   10.7829   17.7932   21.3951 H    0  0  0  0  0  0  0  0  0  0  0  0
   11.3676   15.7826   23.6094 H    0  0  0  0  0  0  0  0  0  0  0  0
   11.1864   17.5175   23.7420 H    0  0  0  0  0  0  0  0  0  0  0  0
    9.1489   16.4110   24.6330 H    0  0  0  0  0  0  0  0  0  0  0  0
    8.7680   17.4018   23.2976 H    0  0  0  0  0  0  0  0  0  0  0  0
    8.2899   14.8427   20.7289 H    0  0  0  0  0  0  0  0  0  0  0  0
    8.2278   16.5259   21.1106 H    0  0  0  0  0  0  0  0  0  0  0  0
    7.7161   14.5372   25.4228 H    0  0  0  0  0  0  0  0  0  0  0  0
   10.0093   14.7971   25.8878 H    0  0  0  0  0  0  0  0  0  0  0  0
   10.5047   13.6916   24.6011 H    0  0  0  0  0  0  0  0  0  0  0  0
    9.9451   13.0919   26.1613 H    0  0  0  0  0  0  0  0  0  0  0  0
   10.1002   11.7353   23.4465 H    0  0  0  0  0  0  0  0  0  0  0  0
   10.5634    9.3845   22.7889 H    0  0  0  0  0  0  0  0  0  0  0  0
    8.9970    7.5688   23.4781 H    0  0  0  0  0  0  0  0  0  0  0  0
    6.9581    8.1231   24.8169 H    0  0  0  0  0  0  0  0  0  0  0  0
  9 10  1  0  0  0  0
  7  9  1  0  0  0  0
  6  7  1  0  0  0  0
  5  6  1  0  0  0  0
  4  5  1  0  0  0  0
  2  4  1  0  0  0  0
  1  2  2  0  0  0  0
  3  2  1  0  0  0  0
 23  3  1  0  0  0  0
 24  3  1  0  0  0  0
 25  4  1  0  0  0  0
 26  5  1  0  0  0  0
 27  5  1  0  0  0  0
 28  6  1  0  0  0  0
 29  6  1  0  0  0  0
 30  7  1  0  0  0  0
 31  7  1  0  0  0  0
  8  4  1  0  0  0  0
 32  8  1  0  0  0  0
 33  8  1  0  0  0  0
 11 10  2  0  0  0  0
 12 10  1  0  0  0  0
 13 12  1  0  0  0  0
 34 12  1  0  0  0  0
 35 13  1  0  0  0  0
 36 13  1  0  0  0  0
 37 13  1  0  0  0  0
 14 12  1  0  0  0  0
 18 14  2  0  0  0  0
 15 14  1  0  0  0  0
 16 15  1  0  0  0  0
 22 16  2  0  0  0  0
 17 16  1  0  0  0  0
 19 15  2  0  0  0  0
 38 19  1  0  0  0  0
 20 19  1  0  0  0  0
 39 20  1  0  0  0  0
 21 20  2  0  0  0  0
 40 21  1  0  0  0  0
 41 22  1  0  0  0  0
  9  8  1  0  0  0  0
 18 17  1  0  0  0  0
 22 21  1  0  0  0  0
M  END
>  <FittedScore>
-33.93

$$$$
