A71EV2A-x4341a_best-RMSD
  FITTED

 39 41     0  0  0  0  0  0  0999 V2000
    7.1657   14.4684   23.5098 O    0  0  0  0  0  0  0  0  0  0  0  0
    8.3183   14.4392   23.8938 C    0  0  0  0  0  0  0  0  0  0  0  0
    9.3668   14.6966   23.0313 N    0  0  0  0  0  0  0  0  0  0  0  0
   10.8039   14.9034   23.4238 C    0  0  0  0  0  0  0  0  0  0  0  0
   11.5367   16.0392   22.6739 C    0  0  0  0  0  0  0  0  0  0  0  0
   11.3425   15.9446   21.1416 C    0  0  0  0  0  0  0  0  0  0  0  0
    9.2175   14.5961   21.5378 C    0  0  0  0  0  0  0  0  0  0  0  0
    9.8403   15.7934   20.7450 C    0  0  0  0  0  0  0  0  0  0  0  0
    9.0703   17.1361   20.8326 C    0  0  0  0  0  0  0  0  0  0  0  0
    9.2989   18.0600   20.0811 O    0  0  0  0  0  0  0  0  0  0  0  0
    8.0335   17.2533   21.6858 N    0  0  0  0  0  0  0  0  0  0  0  0
    8.5744   13.9155   25.3209 C    0  0  0  0  0  0  0  0  0  0  0  0
    7.9150   12.5495   25.5679 C    0  0  0  0  0  0  0  0  0  0  0  0
    8.3334   11.4108   24.8543 C    0  0  0  0  0  0  0  0  0  0  0  0
    9.4012   11.3148   23.8331 C    0  0  0  0  0  0  0  0  0  0  0  0
    9.5148   10.0844   23.3645 C    0  0  0  0  0  0  0  0  0  0  0  0
    8.4610    8.9249   24.0684 S    0  0  0  0  0  0  0  0  0  0  0  0
    7.7359   10.1767   25.0652 C    0  0  0  0  0  0  0  0  0  0  0  0
    6.6971   10.0124   25.9937 C    0  0  0  0  0  0  0  0  0  0  0  0
    6.2790   11.1367   26.7268 C    0  0  0  0  0  0  0  0  0  0  0  0
    6.8771   12.3988   26.5091 C    0  0  0  0  0  0  0  0  0  0  0  0
   10.9105   15.1562   24.4783 H    0  0  0  0  0  0  0  0  0  0  0  0
   11.3483   13.9740   23.2688 H    0  0  0  0  0  0  0  0  0  0  0  0
   11.1647   17.0029   23.0399 H    0  0  0  0  0  0  0  0  0  0  0  0
   12.5998   16.0000   22.9183 H    0  0  0  0  0  0  0  0  0  0  0  0
   11.7817   16.8307   20.6704 H    0  0  0  0  0  0  0  0  0  0  0  0
   11.9126   15.0902   20.7611 H    0  0  0  0  0  0  0  0  0  0  0  0
    8.1806   14.4649   21.2115 H    0  0  0  0  0  0  0  0  0  0  0  0
    9.7121   13.6743   21.2239 H    0  0  0  0  0  0  0  0  0  0  0  0
    9.8275   15.5011   19.6905 H    0  0  0  0  0  0  0  0  0  0  0  0
    7.8223   16.4905   22.3117 H    0  0  0  0  0  0  0  0  0  0  0  0
    7.4004   18.0466   21.6247 H    0  0  0  0  0  0  0  0  0  0  0  0
    8.2243   14.6730   26.0293 H    0  0  0  0  0  0  0  0  0  0  0  0
    9.6297   13.7857   25.5521 H    0  0  0  0  0  0  0  0  0  0  0  0
   10.0412   12.0948   23.4695 H    0  0  0  0  0  0  0  0  0  0  0  0
   10.2316    9.7779   22.6080 H    0  0  0  0  0  0  0  0  0  0  0  0
    6.2369    9.0407   26.1556 H    0  0  0  0  0  0  0  0  0  0  0  0
    5.4974   11.0350   27.4820 H    0  0  0  0  0  0  0  0  0  0  0  0
    6.5405   13.2580   27.0877 H    0  0  0  0  0  0  0  0  0  0  0  0
  3  2  1  0  0  0  0
  4  3  1  0  0  0  0
 22  4  1  0  0  0  0
  1  2  2  0  0  0  0
 23  4  1  0  0  0  0
  5  4  1  0  0  0  0
 24  5  1  0  0  0  0
 25  5  1  0  0  0  0
  6  5  1  0  0  0  0
 26  6  1  0  0  0  0
 27  6  1  0  0  0  0
  7  3  1  0  0  0  0
 28  7  1  0  0  0  0
 29  7  1  0  0  0  0
  8  6  1  0  0  0  0
  9  8  1  0  0  0  0
 30  8  1  0  0  0  0
 10  9  2  0  0  0  0
 11  9  1  0  0  0  0
 31 11  1  0  0  0  0
 32 11  1  0  0  0  0
 12  2  1  0  0  0  0
 33 12  1  0  0  0  0
 34 12  1  0  0  0  0
 13 12  1  0  0  0  0
 21 13  1  0  0  0  0
 14 13  2  0  0  0  0
 15 14  1  0  0  0  0
 35 15  1  0  0  0  0
 16 15  2  0  0  0  0
 36 16  1  0  0  0  0
 17 16  1  0  0  0  0
 18 17  1  0  0  0  0
 19 18  2  0  0  0  0
 37 19  1  0  0  0  0
 20 19  1  0  0  0  0
 38 20  1  0  0  0  0
 39 21  1  0  0  0  0
  8  7  1  0  0  0  0
 18 14  1  0  0  0  0
 21 20  2  0  0  0  0
M  END
>  <FittedScore>
-28.16

$$$$
