A71EV2A-x4341a_lowest-energy
  FITTED

 39 41     0  0  0  0  0  0  0999 V2000
    6.9495   13.8362   21.8269 O    0  0  0  0  0  0  0  0  0  0  0  0
    7.9546   13.9624   22.5043 C    0  0  0  0  0  0  0  0  0  0  0  0
    9.1719   14.3343   21.9677 N    0  0  0  0  0  0  0  0  0  0  0  0
   10.5054   14.3205   22.6678 C    0  0  0  0  0  0  0  0  0  0  0  0
   11.1344   15.7251   22.8147 C    0  0  0  0  0  0  0  0  0  0  0  0
   11.2532   16.4096   21.4332 C    0  0  0  0  0  0  0  0  0  0  0  0
    9.3157   14.9462   20.6057 C    0  0  0  0  0  0  0  0  0  0  0  0
    9.9219   16.3860   20.6120 C    0  0  0  0  0  0  0  0  0  0  0  0
    8.9490   17.5054   21.0248 C    0  0  0  0  0  0  0  0  0  0  0  0
    9.1114   18.6607   20.6956 O    0  0  0  0  0  0  0  0  0  0  0  0
    7.9134   17.2146   21.8314 N    0  0  0  0  0  0  0  0  0  0  0  0
    7.8202   13.7396   24.0066 C    0  0  0  0  0  0  0  0  0  0  0  0
    7.9029   12.2529   24.3873 C    0  0  0  0  0  0  0  0  0  0  0  0
    7.0602   11.7022   25.3807 C    0  0  0  0  0  0  0  0  0  0  0  0
    6.1030   12.4234   26.2602 C    0  0  0  0  0  0  0  0  0  0  0  0
    5.4780   11.5934   27.0838 C    0  0  0  0  0  0  0  0  0  0  0  0
    5.9316    9.9296   26.9333 S    0  0  0  0  0  0  0  0  0  0  0  0
    7.0560   10.3396   25.6440 C    0  0  0  0  0  0  0  0  0  0  0  0
    7.9003    9.4608   24.9549 C    0  0  0  0  0  0  0  0  0  0  0  0
    8.8079    9.9935   24.0275 C    0  0  0  0  0  0  0  0  0  0  0  0
    8.8030   11.3685   23.7445 C    0  0  0  0  0  0  0  0  0  0  0  0
   10.4743   13.8568   23.6540 H    0  0  0  0  0  0  0  0  0  0  0  0
   11.1880   13.6803   22.1021 H    0  0  0  0  0  0  0  0  0  0  0  0
   10.5218   16.3366   23.4823 H    0  0  0  0  0  0  0  0  0  0  0  0
   12.1226   15.6450   23.2710 H    0  0  0  0  0  0  0  0  0  0  0  0
   11.5912   17.4430   21.5687 H    0  0  0  0  0  0  0  0  0  0  0  0
   12.0440   15.9119   20.8534 H    0  0  0  0  0  0  0  0  0  0  0  0
    8.3687   14.9779   20.0584 H    0  0  0  0  0  0  0  0  0  0  0  0
    9.9487   14.2865   20.0007 H    0  0  0  0  0  0  0  0  0  0  0  0
   10.1906   16.6011   19.5748 H    0  0  0  0  0  0  0  0  0  0  0  0
    7.7869   16.2688   22.1603 H    0  0  0  0  0  0  0  0  0  0  0  0
    7.2279   17.9316   22.0509 H    0  0  0  0  0  0  0  0  0  0  0  0
    6.8523   14.1648   24.2848 H    0  0  0  0  0  0  0  0  0  0  0  0
    8.5183   14.3370   24.5983 H    0  0  0  0  0  0  0  0  0  0  0  0
    5.9208   13.4934   26.2801 H    0  0  0  0  0  0  0  0  0  0  0  0
    4.7254   11.8993   27.8054 H    0  0  0  0  0  0  0  0  0  0  0  0
    7.8959    8.3931   25.1564 H    0  0  0  0  0  0  0  0  0  0  0  0
    9.5224    9.3474   23.5211 H    0  0  0  0  0  0  0  0  0  0  0  0
    9.5062   11.7299   23.0034 H    0  0  0  0  0  0  0  0  0  0  0  0
  3  2  1  0  0  0  0
  4  3  1  0  0  0  0
 22  4  1  0  0  0  0
  1  2  2  0  0  0  0
 23  4  1  0  0  0  0
  5  4  1  0  0  0  0
 24  5  1  0  0  0  0
 25  5  1  0  0  0  0
  6  5  1  0  0  0  0
 26  6  1  0  0  0  0
 27  6  1  0  0  0  0
  7  3  1  0  0  0  0
 28  7  1  0  0  0  0
 29  7  1  0  0  0  0
  8  6  1  0  0  0  0
  9  8  1  0  0  0  0
 30  8  1  0  0  0  0
 10  9  2  0  0  0  0
 11  9  1  0  0  0  0
 31 11  1  0  0  0  0
 32 11  1  0  0  0  0
 12  2  1  0  0  0  0
 33 12  1  0  0  0  0
 34 12  1  0  0  0  0
 13 12  1  0  0  0  0
 21 13  1  0  0  0  0
 14 13  2  0  0  0  0
 15 14  1  0  0  0  0
 35 15  1  0  0  0  0
 16 15  2  0  0  0  0
 36 16  1  0  0  0  0
 17 16  1  0  0  0  0
 18 17  1  0  0  0  0
 19 18  2  0  0  0  0
 37 19  1  0  0  0  0
 20 19  1  0  0  0  0
 38 20  1  0  0  0  0
 39 21  1  0  0  0  0
  8  7  1  0  0  0  0
 18 14  1  0  0  0  0
 21 20  2  0  0  0  0
M  END
>  <FittedScore>
-29.44

$$$$
