A71EV2A-x5666a_best-RMSD
  FITTED

 54 57     0  0  0  0  0  0  0999 V2000
    9.6433   16.6080   19.6479 O    0  0  0  0  0  0  0  0  0  0  0  0
   10.0854   15.5155   19.9471 C    0  0  0  0  0  0  0  0  0  0  0  0
   10.6201   14.7465   18.9779 N    0  0  0  0  0  0  0  0  0  0  0  0
   10.2856   15.0403   21.3915 C    0  0  0  0  0  0  0  0  0  0  0  0
   11.5043   15.8054   21.9721 C    0  0  0  0  0  0  0  0  0  0  0  0
   11.7413   15.3875   23.4320 C    0  0  0  0  0  0  0  0  0  0  0  0
   10.4938   15.6583   24.2913 C    0  0  0  0  0  0  0  0  0  0  0  0
    9.0316   15.2067   22.3305 C    0  0  0  0  0  0  0  0  0  0  0  0
    9.2929   14.9120   23.8001 N    0  0  0  0  0  0  0  0  0  0  0  0
    8.5020   14.1991   24.6894 C    0  0  0  0  0  0  0  0  0  0  0  0
    8.6284   14.3029   25.8962 O    0  0  0  0  0  0  0  0  0  0  0  0
    7.3638   13.3229   24.1926 C    0  0  0  0  0  0  0  0  0  0  0  0
    7.0615   12.0969   25.0843 C    0  0  0  0  0  0  0  0  0  0  0  0
    7.7867   10.8837   24.9124 C    0  0  0  0  0  0  0  0  0  0  0  0
    9.2063   10.7678   23.8228 S    0  0  0  0  0  0  0  0  0  0  0  0
    9.4463    8.9785   23.5328 C    0  0  0  0  0  0  0  0  0  0  0  0
    6.0522   12.1049   26.0966 C    0  0  0  0  0  0  0  0  0  0  0  0
    5.7211   10.9563   26.7635 N    0  0  0  0  0  0  0  0  0  0  0  0
    6.4079    9.8242   26.4809 C    0  0  0  0  0  0  0  0  0  0  0  0
    7.4343    9.7575   25.5968 N    0  0  0  0  0  0  0  0  0  0  0  0
    5.3658   13.2486   26.4779 N    0  0  0  0  0  0  0  0  0  0  0  0
    4.1524   13.6658   25.7191 C    0  0  0  0  0  0  0  0  0  0  0  0
    2.8933   13.2443   26.4781 C    0  0  0  0  0  0  0  0  0  0  0  0
    1.3093   12.9760   25.7407 S    0  0  0  0  0  0  0  0  0  0  0  0
    0.6969   12.5020   27.3333 C    0  0  0  0  0  0  0  0  0  0  0  0
    1.6572   12.5835   28.3282 C    0  0  0  0  0  0  0  0  0  0  0  0
    2.8883   13.0119   27.8521 C    0  0  0  0  0  0  0  0  0  0  0  0
    4.1619   13.1492   28.6925 C    0  0  0  0  0  0  0  0  0  0  0  0
    5.3967   13.7015   27.9036 C    0  0  0  0  0  0  0  0  0  0  0  0
   10.5432   15.0265   18.0065 H    0  0  0  0  0  0  0  0  0  0  0  0
   10.9282   13.8008   19.1901 H    0  0  0  0  0  0  0  0  0  0  0  0
   10.5266   13.9702   21.3781 H    0  0  0  0  0  0  0  0  0  0  0  0
   12.4025   15.6037   21.3798 H    0  0  0  0  0  0  0  0  0  0  0  0
   11.3242   16.8851   21.9244 H    0  0  0  0  0  0  0  0  0  0  0  0
   12.0087   14.3268   23.4818 H    0  0  0  0  0  0  0  0  0  0  0  0
   12.5909   15.9450   23.8293 H    0  0  0  0  0  0  0  0  0  0  0  0
   10.7743   15.3839   25.3104 H    0  0  0  0  0  0  0  0  0  0  0  0
   10.2750   16.7335   24.3252 H    0  0  0  0  0  0  0  0  0  0  0  0
    8.2135   14.6232   21.9149 H    0  0  0  0  0  0  0  0  0  0  0  0
    8.6931   16.2434   22.2606 H    0  0  0  0  0  0  0  0  0  0  0  0
    6.4889   13.9622   24.0820 H    0  0  0  0  0  0  0  0  0  0  0  0
    7.5388   12.9608   23.1818 H    0  0  0  0  0  0  0  0  0  0  0  0
    9.7616    8.4949   24.4609 H    0  0  0  0  0  0  0  0  0  0  0  0
   10.2304    8.8349   22.7877 H    0  0  0  0  0  0  0  0  0  0  0  0
    8.5232    8.5189   23.1743 H    0  0  0  0  0  0  0  0  0  0  0  0
    6.1283    8.9189   27.0123 H    0  0  0  0  0  0  0  0  0  0  0  0
    4.1392   14.7489   25.5760 H    0  0  0  0  0  0  0  0  0  0  0  0
    4.1369   13.2244   24.7195 H    0  0  0  0  0  0  0  0  0  0  0  0
   -0.3260   12.1723   27.5034 H    0  0  0  0  0  0  0  0  0  0  0  0
    1.4657   12.3284   29.3695 H    0  0  0  0  0  0  0  0  0  0  0  0
    3.9555   13.7959   29.5507 H    0  0  0  0  0  0  0  0  0  0  0  0
    4.4005   12.1646   29.1079 H    0  0  0  0  0  0  0  0  0  0  0  0
    5.3850   14.7941   27.9531 H    0  0  0  0  0  0  0  0  0  0  0  0
    6.3232   13.3994   28.4047 H    0  0  0  0  0  0  0  0  0  0  0  0
  9 10  1  0  0  0  0
  7  9  1  0  0  0  0
  6  7  1  0  0  0  0
  5  6  1  0  0  0  0
  4  5  1  0  0  0  0
  2  4  1  0  0  0  0
  1  2  2  0  0  0  0
  3  2  1  0  0  0  0
 30  3  1  0  0  0  0
 31  3  1  0  0  0  0
 32  4  1  0  0  0  0
 33  5  1  0  0  0  0
 34  5  1  0  0  0  0
 35  6  1  0  0  0  0
 36  6  1  0  0  0  0
 37  7  1  0  0  0  0
 38  7  1  0  0  0  0
  8  4  1  0  0  0  0
 39  8  1  0  0  0  0
 40  8  1  0  0  0  0
 11 10  2  0  0  0  0
 12 10  1  0  0  0  0
 41 12  1  0  0  0  0
 42 12  1  0  0  0  0
 13 12  1  0  0  0  0
 14 13  1  0  0  0  0
 20 14  2  0  0  0  0
 15 14  1  0  0  0  0
 16 15  1  0  0  0  0
 43 16  1  0  0  0  0
 44 16  1  0  0  0  0
 45 16  1  0  0  0  0
 17 13  2  0  0  0  0
 18 17  1  0  0  0  0
 19 18  2  0  0  0  0
 46 19  1  0  0  0  0
 21 17  1  0  0  0  0
 29 21  1  0  0  0  0
 22 21  1  0  0  0  0
 47 22  1  0  0  0  0
 48 22  1  0  0  0  0
 23 22  1  0  0  0  0
 24 23  1  0  0  0  0
 25 24  1  0  0  0  0
 49 25  1  0  0  0  0
 26 25  2  0  0  0  0
 50 26  1  0  0  0  0
 27 26  1  0  0  0  0
 28 27  1  0  0  0  0
 51 28  1  0  0  0  0
 52 28  1  0  0  0  0
 53 29  1  0  0  0  0
 54 29  1  0  0  0  0
  9  8  1  0  0  0  0
 20 19  1  0  0  0  0
 27 23  2  0  0  0  0
 29 28  1  0  0  0  0
M  END
>  <FittedScore>
-29.65

$$$$
