A71EV2A-x5666a_lowest-energy
  FITTED

 54 57     0  0  0  0  0  0  0999 V2000
    9.8840   16.7048   19.4693 O    0  0  0  0  0  0  0  0  0  0  0  0
   10.3515   15.6234   19.7601 C    0  0  0  0  0  0  0  0  0  0  0  0
   10.7515   14.7713   18.7933 N    0  0  0  0  0  0  0  0  0  0  0  0
   10.4133   15.1269   21.2054 C    0  0  0  0  0  0  0  0  0  0  0  0
   11.3287   16.0507   22.0628 C    0  0  0  0  0  0  0  0  0  0  0  0
   11.3204   15.5871   23.5409 C    0  0  0  0  0  0  0  0  0  0  0  0
    9.8768   15.4679   24.0957 C    0  0  0  0  0  0  0  0  0  0  0  0
    8.9873   15.0156   21.8360 C    0  0  0  0  0  0  0  0  0  0  0  0
    9.0148   14.5606   23.2672 N    0  0  0  0  0  0  0  0  0  0  0  0
    8.2914   13.4776   23.7170 C    0  0  0  0  0  0  0  0  0  0  0  0
    7.5288   12.8793   22.9787 O    0  0  0  0  0  0  0  0  0  0  0  0
    8.5026   12.9629   25.1440 C    0  0  0  0  0  0  0  0  0  0  0  0
    7.6562   11.7239   25.5092 C    0  0  0  0  0  0  0  0  0  0  0  0
    8.0206   10.4389   25.0212 C    0  0  0  0  0  0  0  0  0  0  0  0
    9.4351   10.2174   23.9485 S    0  0  0  0  0  0  0  0  0  0  0  0
    9.4506    8.4800   23.4326 C    0  0  0  0  0  0  0  0  0  0  0  0
    6.4794   11.7890   26.3141 C    0  0  0  0  0  0  0  0  0  0  0  0
    5.8194   10.6626   26.6994 N    0  0  0  0  0  0  0  0  0  0  0  0
    6.2562    9.4774   26.2098 C    0  0  0  0  0  0  0  0  0  0  0  0
    7.3052    9.3333   25.3608 N    0  0  0  0  0  0  0  0  0  0  0  0
    5.8775   12.9635   26.7092 N    0  0  0  0  0  0  0  0  0  0  0  0
    6.3528   13.7437   27.8789 C    0  0  0  0  0  0  0  0  0  0  0  0
    6.7389   15.1504   27.4176 C    0  0  0  0  0  0  0  0  0  0  0  0
    7.9691   16.1414   28.1972 S    0  0  0  0  0  0  0  0  0  0  0  0
    7.8188   17.3015   26.8685 C    0  0  0  0  0  0  0  0  0  0  0  0
    6.8735   16.9259   25.9271 C    0  0  0  0  0  0  0  0  0  0  0  0
    6.2534   15.7237   26.2451 C    0  0  0  0  0  0  0  0  0  0  0  0
    5.2736   14.9869   25.3362 C    0  0  0  0  0  0  0  0  0  0  0  0
    4.8344   13.5839   25.8534 C    0  0  0  0  0  0  0  0  0  0  0  0
   10.6105   15.0225   17.8152 H    0  0  0  0  0  0  0  0  0  0  0  0
   11.0129   13.8216   19.0451 H    0  0  0  0  0  0  0  0  0  0  0  0
   10.8557   14.1251   21.2376 H    0  0  0  0  0  0  0  0  0  0  0  0
   12.3523   16.0325   21.6784 H    0  0  0  0  0  0  0  0  0  0  0  0
   10.9879   17.0887   21.9952 H    0  0  0  0  0  0  0  0  0  0  0  0
   11.8284   14.6220   23.6180 H    0  0  0  0  0  0  0  0  0  0  0  0
   11.8897   16.2945   24.1467 H    0  0  0  0  0  0  0  0  0  0  0  0
    9.9590   15.1628   25.1371 H    0  0  0  0  0  0  0  0  0  0  0  0
    9.4129   16.4592   24.1299 H    0  0  0  0  0  0  0  0  0  0  0  0
    8.3912   14.3616   21.1920 H    0  0  0  0  0  0  0  0  0  0  0  0
    8.4863   15.9867   21.7954 H    0  0  0  0  0  0  0  0  0  0  0  0
    9.5599   12.7363   25.3050 H    0  0  0  0  0  0  0  0  0  0  0  0
    8.3113   13.7626   25.8433 H    0  0  0  0  0  0  0  0  0  0  0  0
    9.5347    7.8274   24.3018 H    0  0  0  0  0  0  0  0  0  0  0  0
   10.3056    8.3107   22.7719 H    0  0  0  0  0  0  0  0  0  0  0  0
    8.5319    8.2508   22.8929 H    0  0  0  0  0  0  0  0  0  0  0  0
    5.7262    8.5794   26.5153 H    0  0  0  0  0  0  0  0  0  0  0  0
    5.5772   13.8149   28.6464 H    0  0  0  0  0  0  0  0  0  0  0  0
    7.2199   13.2720   28.3484 H    0  0  0  0  0  0  0  0  0  0  0  0
    8.4182   18.2062   26.8005 H    0  0  0  0  0  0  0  0  0  0  0  0
    6.6552   17.5010   25.0309 H    0  0  0  0  0  0  0  0  0  0  0  0
    4.3832   15.6035   25.1851 H    0  0  0  0  0  0  0  0  0  0  0  0
    5.7370   14.8609   24.3543 H    0  0  0  0  0  0  0  0  0  0  0  0
    3.9017   13.6788   26.4144 H    0  0  0  0  0  0  0  0  0  0  0  0
    4.5971   12.9554   24.9870 H    0  0  0  0  0  0  0  0  0  0  0  0
  9 10  1  0  0  0  0
  7  9  1  0  0  0  0
  6  7  1  0  0  0  0
  5  6  1  0  0  0  0
  4  5  1  0  0  0  0
  2  4  1  0  0  0  0
  1  2  2  0  0  0  0
  3  2  1  0  0  0  0
 30  3  1  0  0  0  0
 31  3  1  0  0  0  0
 32  4  1  0  0  0  0
 33  5  1  0  0  0  0
 34  5  1  0  0  0  0
 35  6  1  0  0  0  0
 36  6  1  0  0  0  0
 37  7  1  0  0  0  0
 38  7  1  0  0  0  0
  8  4  1  0  0  0  0
 39  8  1  0  0  0  0
 40  8  1  0  0  0  0
 11 10  2  0  0  0  0
 12 10  1  0  0  0  0
 41 12  1  0  0  0  0
 42 12  1  0  0  0  0
 13 12  1  0  0  0  0
 14 13  1  0  0  0  0
 20 14  2  0  0  0  0
 15 14  1  0  0  0  0
 16 15  1  0  0  0  0
 43 16  1  0  0  0  0
 44 16  1  0  0  0  0
 45 16  1  0  0  0  0
 17 13  2  0  0  0  0
 18 17  1  0  0  0  0
 19 18  2  0  0  0  0
 46 19  1  0  0  0  0
 21 17  1  0  0  0  0
 29 21  1  0  0  0  0
 22 21  1  0  0  0  0
 47 22  1  0  0  0  0
 48 22  1  0  0  0  0
 23 22  1  0  0  0  0
 24 23  1  0  0  0  0
 25 24  1  0  0  0  0
 49 25  1  0  0  0  0
 26 25  2  0  0  0  0
 50 26  1  0  0  0  0
 27 26  1  0  0  0  0
 28 27  1  0  0  0  0
 51 28  1  0  0  0  0
 52 28  1  0  0  0  0
 53 29  1  0  0  0  0
 54 29  1  0  0  0  0
  9  8  1  0  0  0  0
 20 19  1  0  0  0  0
 27 23  2  0  0  0  0
 29 28  1  0  0  0  0
M  END
>  <FittedScore>
-32.51

$$$$
