A71EV2A-x3616b_lowest-energy
  FITTED

 41 42     0  0  0  0  0  0  0999 V2000
    9.8599   16.9563   19.3392 O    0  0  0  0  0  0  0  0  0  0  0  0
   10.2395   15.8562   19.7007 C    0  0  0  0  0  0  0  0  0  0  0  0
   10.5193   14.8868   18.8077 N    0  0  0  0  0  0  0  0  0  0  0  0
   10.3495   15.4214   21.1562 C    0  0  0  0  0  0  0  0  0  0  0  0
   11.6847   15.8930   21.8072 C    0  0  0  0  0  0  0  0  0  0  0  0
   11.7418   15.5052   23.3160 C    0  0  0  0  0  0  0  0  0  0  0  0
   10.4384   15.8796   24.0811 C    0  0  0  0  0  0  0  0  0  0  0  0
    9.1396   15.9106   21.9930 C    0  0  0  0  0  0  0  0  0  0  0  0
    9.2053   15.3733   23.3848 N    0  0  0  0  0  0  0  0  0  0  0  0
    8.3571   14.3802   23.8237 C    0  0  0  0  0  0  0  0  0  0  0  0
    7.5489   13.8554   23.0847 O    0  0  0  0  0  0  0  0  0  0  0  0
    8.5341   13.8898   25.0779 N    0  0  0  0  0  0  0  0  0  0  0  0
    7.8704   12.6847   25.6146 C    0  0  0  0  0  0  0  0  0  0  0  0
    8.2576   11.3274   24.9694 C    0  0  0  0  0  0  0  0  0  0  0  0
    7.4905   10.1554   25.2396 C    0  0  0  0  0  0  0  0  0  0  0  0
    6.3017   10.1622   26.2040 C    0  0  0  0  0  0  0  0  0  0  0  0
    9.3858   11.2059   24.1202 C    0  0  0  0  0  0  0  0  0  0  0  0
    9.7060    9.9845   23.5176 C    0  0  0  0  0  0  0  0  0  0  0  0
    8.9262    8.8543   23.7512 C    0  0  0  0  0  0  0  0  0  0  0  0
    7.8348    8.9364   24.6205 C    0  0  0  0  0  0  0  0  0  0  0  0
   10.4287   15.0755   17.8182 H    0  0  0  0  0  0  0  0  0  0  0  0
   10.7354   13.9422   19.1198 H    0  0  0  0  0  0  0  0  0  0  0  0
   10.3420   14.3230   21.1999 H    0  0  0  0  0  0  0  0  0  0  0  0
   12.5297   15.4374   21.2837 H    0  0  0  0  0  0  0  0  0  0  0  0
   11.8007   16.9776   21.7002 H    0  0  0  0  0  0  0  0  0  0  0  0
   11.9293   14.4322   23.4133 H    0  0  0  0  0  0  0  0  0  0  0  0
   12.5887   16.0165   23.7829 H    0  0  0  0  0  0  0  0  0  0  0  0
   10.5332   15.5250   25.1080 H    0  0  0  0  0  0  0  0  0  0  0  0
   10.3720   16.9694   24.1704 H    0  0  0  0  0  0  0  0  0  0  0  0
    8.2140   15.6557   21.4714 H    0  0  0  0  0  0  0  0  0  0  0  0
    9.1210   17.0024   22.0334 H    0  0  0  0  0  0  0  0  0  0  0  0
    9.1979   14.3425   25.7014 H    0  0  0  0  0  0  0  0  0  0  0  0
    8.0993   12.6368   26.6790 H    0  0  0  0  0  0  0  0  0  0  0  0
    6.7958   12.8558   25.5340 H    0  0  0  0  0  0  0  0  0  0  0  0
    6.6008   10.5582   27.1773 H    0  0  0  0  0  0  0  0  0  0  0  0
    5.8867    9.1658   26.3754 H    0  0  0  0  0  0  0  0  0  0  0  0
    5.4924   10.7810   25.8077 H    0  0  0  0  0  0  0  0  0  0  0  0
   10.0355   12.0493   23.8959 H    0  0  0  0  0  0  0  0  0  0  0  0
   10.5622    9.9268   22.8536 H    0  0  0  0  0  0  0  0  0  0  0  0
    9.1793    7.9118   23.2739 H    0  0  0  0  0  0  0  0  0  0  0  0
    7.2621    8.0306   24.8079 H    0  0  0  0  0  0  0  0  0  0  0  0
  9 10  1  0  0  0  0
  7  9  1  0  0  0  0
  6  7  1  0  0  0  0
  5  6  1  0  0  0  0
  4  5  1  0  0  0  0
  2  4  1  0  0  0  0
  1  2  2  0  0  0  0
  3  2  1  0  0  0  0
 21  3  1  0  0  0  0
 22  3  1  0  0  0  0
 23  4  1  0  0  0  0
 24  5  1  0  0  0  0
 25  5  1  0  0  0  0
 26  6  1  0  0  0  0
 27  6  1  0  0  0  0
 28  7  1  0  0  0  0
 29  7  1  0  0  0  0
  8  4  1  0  0  0  0
 30  8  1  0  0  0  0
 31  8  1  0  0  0  0
 11 10  2  0  0  0  0
 12 10  1  0  0  0  0
 32 12  1  0  0  0  0
 13 12  1  0  0  0  0
 33 13  1  0  0  0  0
 34 13  1  0  0  0  0
 14 13  1  0  0  0  0
 15 14  1  0  0  0  0
 20 15  2  0  0  0  0
 16 15  1  0  0  0  0
 35 16  1  0  0  0  0
 36 16  1  0  0  0  0
 37 16  1  0  0  0  0
 17 14  2  0  0  0  0
 38 17  1  0  0  0  0
 18 17  1  0  0  0  0
 39 18  1  0  0  0  0
 19 18  2  0  0  0  0
 40 19  1  0  0  0  0
 41 20  1  0  0  0  0
  9  8  1  0  0  0  0
 20 19  1  0  0  0  0
M  END
>  <FittedScore>
-37.47

$$$$
