A71EV2A-x7046a_best-RMSD
  FITTED

 56 59     0  0  0  0  0  0  0999 V2000
   10.0808    9.1962   23.5150 C    0  0  0  0  0  0  0  0  0  0  0  0
    9.3799   10.8723   23.6157 S    0  0  0  0  0  0  0  0  0  0  0  0
    7.9561   10.8658   24.7076 C    0  0  0  0  0  0  0  0  0  0  0  0
    7.4003    9.6734   25.1901 C    0  0  0  0  0  0  0  0  0  0  0  0
    6.2421    9.6859   25.9801 C    0  0  0  0  0  0  0  0  0  0  0  0
    5.5627   10.8786   26.2930 C    0  0  0  0  0  0  0  0  0  0  0  0
    4.2441   10.8440   27.0763 C    0  0  0  0  0  0  0  0  0  0  0  0
    3.7124   11.9662   27.5662 C    0  0  0  0  0  0  0  0  0  0  0  0
    2.4241   12.0196   28.3900 C    0  0  0  0  0  0  0  0  0  0  0  0
    2.2014   10.6674   29.0528 N    0  0  0  0  0  0  0  0  0  0  0  0
    1.0464   10.6877   30.0293 C    0  0  0  0  0  0  0  0  0  0  0  0
    2.1333    9.5767   27.9919 C    0  0  0  0  0  0  0  0  0  0  0  0
    3.5251    9.4831   27.3030 C    0  0  0  0  0  0  0  0  0  0  0  0
    6.1630   12.0768   25.8484 C    0  0  0  0  0  0  0  0  0  0  0  0
    7.3250   12.0864   25.0809 C    0  0  0  0  0  0  0  0  0  0  0  0
    7.8220   13.3405   24.7694 O    0  0  0  0  0  0  0  0  0  0  0  0
    7.9603   13.8339   23.5149 C    0  0  0  0  0  0  0  0  0  0  0  0
    7.3954   13.3275   22.5615 O    0  0  0  0  0  0  0  0  0  0  0  0
    8.9851   14.7604   23.3539 N    0  0  0  0  0  0  0  0  0  0  0  0
    9.0372   15.5888   22.1068 C    0  0  0  0  0  0  0  0  0  0  0  0
    9.9741   14.9449   21.0661 C    0  0  0  0  0  0  0  0  0  0  0  0
   10.0509   15.6014   19.6862 C    0  0  0  0  0  0  0  0  0  0  0  0
   10.7650   14.8832   18.7789 N    0  0  0  0  0  0  0  0  0  0  0  0
    9.6232   16.7099   19.4091 O    0  0  0  0  0  0  0  0  0  0  0  0
   11.4333   14.6952   21.5878 C    0  0  0  0  0  0  0  0  0  0  0  0
   11.3945   14.1239   22.9973 C    0  0  0  0  0  0  0  0  0  0  0  0
   11.6605   15.1109   24.0819 C    0  0  0  0  0  0  0  0  0  0  0  0
   10.3301   14.4374   23.9992 C    0  0  0  0  0  0  0  0  0  0  0  0
   10.9136    9.1959   22.8138 H    0  0  0  0  0  0  0  0  0  0  0  0
    9.3559    8.4264   23.2433 H    0  0  0  0  0  0  0  0  0  0  0  0
   10.5534    8.9840   24.4738 H    0  0  0  0  0  0  0  0  0  0  0  0
    7.8240    8.6961   24.9634 H    0  0  0  0  0  0  0  0  0  0  0  0
    5.8887    8.7148   26.3239 H    0  0  0  0  0  0  0  0  0  0  0  0
    4.1671   12.9396   27.4455 H    0  0  0  0  0  0  0  0  0  0  0  0
    1.5794   12.2774   27.7431 H    0  0  0  0  0  0  0  0  0  0  0  0
    2.5126   12.7936   29.1511 H    0  0  0  0  0  0  0  0  0  0  0  0
    3.0441   10.4608   29.6145 H    0  0  0  0  0  0  0  0  0  0  0  0
    0.9041    9.6981   30.4669 H    0  0  0  0  0  0  0  0  0  0  0  0
    0.1136   10.9349   29.4990 H    0  0  0  0  0  0  0  0  0  0  0  0
    1.2103   11.4319   30.8065 H    0  0  0  0  0  0  0  0  0  0  0  0
    1.3545    9.8067   27.2512 H    0  0  0  0  0  0  0  0  0  0  0  0
    1.8739    8.6128   28.4390 H    0  0  0  0  0  0  0  0  0  0  0  0
    3.3777    8.9794   26.3488 H    0  0  0  0  0  0  0  0  0  0  0  0
    4.1610    8.8308   27.9061 H    0  0  0  0  0  0  0  0  0  0  0  0
    5.7715   13.0542   26.0887 H    0  0  0  0  0  0  0  0  0  0  0  0
    9.4177   16.5878   22.3364 H    0  0  0  0  0  0  0  0  0  0  0  0
    8.0308   15.7382   21.6758 H    0  0  0  0  0  0  0  0  0  0  0  0
    9.5374   13.9694   20.8765 H    0  0  0  0  0  0  0  0  0  0  0  0
   11.2022   14.0269   19.1093 H    0  0  0  0  0  0  0  0  0  0  0  0
   10.3790   14.8215   17.8539 H    0  0  0  0  0  0  0  0  0  0  0  0
   12.0888   15.5466   21.4457 H    0  0  0  0  0  0  0  0  0  0  0  0
   11.8462   13.8747   20.9718 H    0  0  0  0  0  0  0  0  0  0  0  0
   11.8000   13.1092   23.0505 H    0  0  0  0  0  0  0  0  0  0  0  0
   11.7462   16.1511   23.7721 H    0  0  0  0  0  0  0  0  0  0  0  0
   12.3889   14.7779   24.8102 H    0  0  0  0  0  0  0  0  0  0  0  0
   10.0921   13.7208   24.7766 H    0  0  0  0  0  0  0  0  0  0  0  0
 14 15  2  0  0  0  0
  6 14  1  0  0  0  0
  5  6  2  0  0  0  0
  4  5  1  0  0  0  0
  3  4  2  0  0  0  0
  2  3  1  0  0  0  0
  1  2  1  0  0  0  0
 29  1  1  0  0  0  0
 30  1  1  0  0  0  0
 31  1  1  0  0  0  0
 32  4  1  0  0  0  0
 33  5  1  0  0  0  0
  7  6  1  0  0  0  0
  8  7  2  0  0  0  0
  9  8  1  0  0  0  0
 34  8  1  0  0  0  0
 10  9  1  0  0  0  0
 35  9  1  0  0  0  0
 36  9  1  0  0  0  0
 11 10  1  0  0  0  0
 12 10  1  0  0  0  0
 37 10  1  0  0  0  0
 38 11  1  0  0  0  0
 39 11  1  0  0  0  0
 40 11  1  0  0  0  0
 13 12  1  0  0  0  0
 41 12  1  0  0  0  0
 42 12  1  0  0  0  0
 43 13  1  0  0  0  0
 44 13  1  0  0  0  0
 45 14  1  0  0  0  0
 16 15  1  0  0  0  0
 17 16  1  0  0  0  0
 18 17  2  0  0  0  0
 19 17  1  0  0  0  0
 20 19  1  0  0  0  0
 21 20  1  0  0  0  0
 46 20  1  0  0  0  0
 47 20  1  0  0  0  0
 22 21  1  0  0  0  0
 25 21  1  0  0  0  0
 48 21  1  0  0  0  0
 23 22  1  0  0  0  0
 24 22  2  0  0  0  0
 49 23  1  0  0  0  0
 50 23  1  0  0  0  0
 51 25  1  0  0  0  0
 52 25  1  0  0  0  0
 26 25  1  0  0  0  0
 27 26  1  0  0  0  0
 53 26  1  0  0  0  0
 54 27  1  0  0  0  0
 55 27  1  0  0  0  0
 28 27  1  0  0  0  0
 56 28  1  0  0  0  0
 13  7  1  0  0  0  0
 15  3  1  0  0  0  0
 28 19  1  0  0  0  0
 28 26  1  0  0  0  0
M  CHG  1  10   1
M  END
>  <FittedScore>
-28.45

$$$$
