A71EV2A-x4476a_lowest-energy
  FITTED

 41 43     0  0  0  0  0  0  0999 V2000
    9.6996   16.5950   19.0760 O    0  0  0  0  0  0  0  0  0  0  0  0
   10.2622   15.6088   19.5067 C    0  0  0  0  0  0  0  0  0  0  0  0
   10.7374   14.6893   18.6515 N    0  0  0  0  0  0  0  0  0  0  0  0
   10.3113   15.2225   20.9835 C    0  0  0  0  0  0  0  0  0  0  0  0
    9.0412   14.4791   21.5239 C    0  0  0  0  0  0  0  0  0  0  0  0
   10.3467   16.3962   21.9339 C    0  0  0  0  0  0  0  0  0  0  0  0
   10.3423   15.4954   23.1844 C    0  0  0  0  0  0  0  0  0  0  0  0
   11.6236   14.6702   22.9915 C    0  0  0  0  0  0  0  0  0  0  0  0
   11.6271   14.5202   21.4555 C    0  0  0  0  0  0  0  0  0  0  0  0
    9.1448   14.6326   23.0014 N    0  0  0  0  0  0  0  0  0  0  0  0
    8.4453   14.0104   23.9991 C    0  0  0  0  0  0  0  0  0  0  0  0
    8.7928   14.1382   25.1638 O    0  0  0  0  0  0  0  0  0  0  0  0
    7.2316   13.1546   23.6118 C    0  0  0  0  0  0  0  0  0  0  0  0
    6.7483   12.2165   24.7283 C    0  0  0  0  0  0  0  0  0  0  0  0
    7.1077   10.8460   24.7957 C    0  0  0  0  0  0  0  0  0  0  0  0
    7.9176   10.2287   23.8590 O    0  0  0  0  0  0  0  0  0  0  0  0
    9.3473   10.4739   23.7944 C    0  0  0  0  0  0  0  0  0  0  0  0
    5.9091   12.7461   25.7304 C    0  0  0  0  0  0  0  0  0  0  0  0
    5.4266   11.9365   26.7677 C    0  0  0  0  0  0  0  0  0  0  0  0
    5.7666   10.5780   26.8134 C    0  0  0  0  0  0  0  0  0  0  0  0
    6.6004   10.0368   25.8259 C    0  0  0  0  0  0  0  0  0  0  0  0
   10.7883   14.8830   17.6642 H    0  0  0  0  0  0  0  0  0  0  0  0
   11.0048   13.7662   18.9806 H    0  0  0  0  0  0  0  0  0  0  0  0
    8.1141   14.9283   21.1501 H    0  0  0  0  0  0  0  0  0  0  0  0
    9.0640   13.4292   21.2183 H    0  0  0  0  0  0  0  0  0  0  0  0
   11.2350   17.0368   21.8357 H    0  0  0  0  0  0  0  0  0  0  0  0
    9.4642   17.0469   21.8659 H    0  0  0  0  0  0  0  0  0  0  0  0
   10.3307   16.0772   24.1093 H    0  0  0  0  0  0  0  0  0  0  0  0
   12.5055   15.2128   23.3412 H    0  0  0  0  0  0  0  0  0  0  0  0
   11.5852   13.7024   23.4989 H    0  0  0  0  0  0  0  0  0  0  0  0
   12.5205   14.9931   21.0287 H    0  0  0  0  0  0  0  0  0  0  0  0
   11.6466   13.4645   21.1731 H    0  0  0  0  0  0  0  0  0  0  0  0
    6.4244   13.8304   23.3237 H    0  0  0  0  0  0  0  0  0  0  0  0
    7.4295   12.5612   22.7176 H    0  0  0  0  0  0  0  0  0  0  0  0
    9.5882   11.4978   23.5132 H    0  0  0  0  0  0  0  0  0  0  0  0
    9.7881    9.8101   23.0480 H    0  0  0  0  0  0  0  0  0  0  0  0
    9.7991   10.2552   24.7647 H    0  0  0  0  0  0  0  0  0  0  0  0
    5.6320   13.7982   25.7102 H    0  0  0  0  0  0  0  0  0  0  0  0
    4.7894   12.3662   27.5361 H    0  0  0  0  0  0  0  0  0  0  0  0
    5.3862    9.9471   27.6141 H    0  0  0  0  0  0  0  0  0  0  0  0
    6.8628    8.9812   25.8683 H    0  0  0  0  0  0  0  0  0  0  0  0
  5 10  1  0  0  0  0
  4  5  1  0  0  0  0
  2  4  1  0  0  0  0
  1  2  2  0  0  0  0
  3  2  1  0  0  0  0
 22  3  1  0  0  0  0
 23  3  1  0  0  0  0
  9  4  1  0  0  0  0
 24  5  1  0  0  0  0
 25  5  1  0  0  0  0
  6  4  1  0  0  0  0
 26  6  1  0  0  0  0
 27  6  1  0  0  0  0
  7  6  1  0  0  0  0
  8  7  1  0  0  0  0
 28  7  1  0  0  0  0
 29  8  1  0  0  0  0
 30  8  1  0  0  0  0
 31  9  1  0  0  0  0
 32  9  1  0  0  0  0
 11 10  1  0  0  0  0
 12 11  2  0  0  0  0
 13 11  1  0  0  0  0
 33 13  1  0  0  0  0
 34 13  1  0  0  0  0
 14 13  1  0  0  0  0
 15 14  1  0  0  0  0
 21 15  2  0  0  0  0
 16 15  1  0  0  0  0
 17 16  1  0  0  0  0
 35 17  1  0  0  0  0
 36 17  1  0  0  0  0
 37 17  1  0  0  0  0
 18 14  2  0  0  0  0
 38 18  1  0  0  0  0
 19 18  1  0  0  0  0
 39 19  1  0  0  0  0
 20 19  2  0  0  0  0
 40 20  1  0  0  0  0
 41 21  1  0  0  0  0
  9  8  1  0  0  0  0
 10  7  1  0  0  0  0
 21 20  1  0  0  0  0
M  END
>  <FittedScore>
-32.10

$$$$
