A71EV2A-x4476a_best-RMSD
  FITTED

 41 43     0  0  0  0  0  0  0999 V2000
    9.8217   16.6056   19.0591 O    0  0  0  0  0  0  0  0  0  0  0  0
   10.3392   15.6004   19.5067 C    0  0  0  0  0  0  0  0  0  0  0  0
   10.7855   14.6642   18.6650 N    0  0  0  0  0  0  0  0  0  0  0  0
   10.3447   15.2173   20.9859 C    0  0  0  0  0  0  0  0  0  0  0  0
    9.0382   14.5238   21.5071 C    0  0  0  0  0  0  0  0  0  0  0  0
   10.3970   16.3948   21.9317 C    0  0  0  0  0  0  0  0  0  0  0  0
   10.3361   15.5159   23.1868 C    0  0  0  0  0  0  0  0  0  0  0  0
   11.5839   14.6375   23.0429 C    0  0  0  0  0  0  0  0  0  0  0  0
   11.6188   14.4697   21.5042 C    0  0  0  0  0  0  0  0  0  0  0  0
    9.1050   14.7116   22.9850 N    0  0  0  0  0  0  0  0  0  0  0  0
    8.3152   14.1975   23.9794 C    0  0  0  0  0  0  0  0  0  0  0  0
    8.5807   14.4186   25.1482 O    0  0  0  0  0  0  0  0  0  0  0  0
    7.1269   13.3235   23.5746 C    0  0  0  0  0  0  0  0  0  0  0  0
    6.7162   12.3114   24.6506 C    0  0  0  0  0  0  0  0  0  0  0  0
    7.2092   10.9828   24.6751 C    0  0  0  0  0  0  0  0  0  0  0  0
    8.1230   10.5015   23.7581 O    0  0  0  0  0  0  0  0  0  0  0  0
    9.5172   10.8503   23.8001 C    0  0  0  0  0  0  0  0  0  0  0  0
    5.7803   12.7063   25.6265 C    0  0  0  0  0  0  0  0  0  0  0  0
    5.3206   11.7981   26.5904 C    0  0  0  0  0  0  0  0  0  0  0  0
    5.7876   10.4768   26.5852 C    0  0  0  0  0  0  0  0  0  0  0  0
    6.7240   10.0715   25.6269 C    0  0  0  0  0  0  0  0  0  0  0  0
   10.8909   14.8534   17.6730 H    0  0  0  0  0  0  0  0  0  0  0  0
   11.0246   13.7452   19.0155 H    0  0  0  0  0  0  0  0  0  0  0  0
    8.1366   14.9927   21.0977 H    0  0  0  0  0  0  0  0  0  0  0  0
    9.0378   13.4640   21.2353 H    0  0  0  0  0  0  0  0  0  0  0  0
   11.3045   17.0035   21.8581 H    0  0  0  0  0  0  0  0  0  0  0  0
    9.5348   17.0676   21.8491 H    0  0  0  0  0  0  0  0  0  0  0  0
   10.3279   16.1180   24.0955 H    0  0  0  0  0  0  0  0  0  0  0  0
   12.4746   15.1503   23.4139 H    0  0  0  0  0  0  0  0  0  0  0  0
   11.4928   13.6808   23.5673 H    0  0  0  0  0  0  0  0  0  0  0  0
   12.5397   14.9071   21.0972 H    0  0  0  0  0  0  0  0  0  0  0  0
   11.6120   13.4063   21.2307 H    0  0  0  0  0  0  0  0  0  0  0  0
    6.2883   13.9771   23.3257 H    0  0  0  0  0  0  0  0  0  0  0  0
    7.3219   12.7666   22.6570 H    0  0  0  0  0  0  0  0  0  0  0  0
    9.9100   10.7593   24.8174 H    0  0  0  0  0  0  0  0  0  0  0  0
    9.6808   11.8586   23.4354 H    0  0  0  0  0  0  0  0  0  0  0  0
   10.0641   10.1700   23.1483 H    0  0  0  0  0  0  0  0  0  0  0  0
    5.3963   13.7253   25.6320 H    0  0  0  0  0  0  0  0  0  0  0  0
    4.5950   12.1173   27.3318 H    0  0  0  0  0  0  0  0  0  0  0  0
    5.4204    9.7656   27.3200 H    0  0  0  0  0  0  0  0  0  0  0  0
    7.0738    9.0418   25.6237 H    0  0  0  0  0  0  0  0  0  0  0  0
  5 10  1  0  0  0  0
  4  5  1  0  0  0  0
  2  4  1  0  0  0  0
  1  2  2  0  0  0  0
  3  2  1  0  0  0  0
 22  3  1  0  0  0  0
 23  3  1  0  0  0  0
  9  4  1  0  0  0  0
 24  5  1  0  0  0  0
 25  5  1  0  0  0  0
  6  4  1  0  0  0  0
 26  6  1  0  0  0  0
 27  6  1  0  0  0  0
  7  6  1  0  0  0  0
  8  7  1  0  0  0  0
 28  7  1  0  0  0  0
 29  8  1  0  0  0  0
 30  8  1  0  0  0  0
 31  9  1  0  0  0  0
 32  9  1  0  0  0  0
 11 10  1  0  0  0  0
 12 11  2  0  0  0  0
 13 11  1  0  0  0  0
 33 13  1  0  0  0  0
 34 13  1  0  0  0  0
 14 13  1  0  0  0  0
 15 14  1  0  0  0  0
 21 15  2  0  0  0  0
 16 15  1  0  0  0  0
 17 16  1  0  0  0  0
 35 17  1  0  0  0  0
 36 17  1  0  0  0  0
 37 17  1  0  0  0  0
 18 14  2  0  0  0  0
 38 18  1  0  0  0  0
 19 18  1  0  0  0  0
 39 19  1  0  0  0  0
 20 19  2  0  0  0  0
 40 20  1  0  0  0  0
 41 21  1  0  0  0  0
  9  8  1  0  0  0  0
 10  7  1  0  0  0  0
 21 20  1  0  0  0  0
M  END
>  <FittedScore>
-31.70

$$$$
