A71EV2A-x4851a_lowest-energy
  FITTED

 39 40     0  0  0  0  0  0  0999 V2000
    9.6388    9.0627   23.6679 C    0  0  0  0  0  0  0  0  0  0  0  0
    9.1470   10.8137   23.8549 S    0  0  0  0  0  0  0  0  0  0  0  0
    7.7531   11.0380   25.0015 C    0  0  0  0  0  0  0  0  0  0  0  0
    6.9978    9.9713   25.5416 C    0  0  0  0  0  0  0  0  0  0  0  0
    7.1230    8.7300   25.0873 F    0  0  0  0  0  0  0  0  0  0  0  0
    6.0125   10.1815   26.5190 C    0  0  0  0  0  0  0  0  0  0  0  0
    5.7365   11.4784   26.9591 C    0  0  0  0  0  0  0  0  0  0  0  0
    6.4184   12.5611   26.3954 C    0  0  0  0  0  0  0  0  0  0  0  0
    7.3822   12.3517   25.3931 C    0  0  0  0  0  0  0  0  0  0  0  0
    7.9429   13.5227   24.7836 N    0  0  0  0  0  0  0  0  0  0  0  0
    7.9470   13.8610   23.4667 C    0  0  0  0  0  0  0  0  0  0  0  0
    7.2467   13.2550   22.6631 O    0  0  0  0  0  0  0  0  0  0  0  0
    8.8453   14.8387   23.1097 N    0  0  0  0  0  0  0  0  0  0  0  0
    9.9445   15.4261   23.9636 C    0  0  0  0  0  0  0  0  0  0  0  0
   11.3698   15.2914   23.3461 C    0  0  0  0  0  0  0  0  0  0  0  0
   11.4336   15.7811   21.8757 C    0  0  0  0  0  0  0  0  0  0  0  0
   10.2834   15.1411   21.0470 C    0  0  0  0  0  0  0  0  0  0  0  0
   10.2962   15.6362   19.6090 C    0  0  0  0  0  0  0  0  0  0  0  0
   10.7599   14.7623   18.6953 N    0  0  0  0  0  0  0  0  0  0  0  0
    9.8066   16.6951   19.2679 O    0  0  0  0  0  0  0  0  0  0  0  0
    8.9032   15.3855   21.7240 C    0  0  0  0  0  0  0  0  0  0  0  0
   10.5717    9.0227   23.1044 H    0  0  0  0  0  0  0  0  0  0  0  0
    8.8755    8.4953   23.1320 H    0  0  0  0  0  0  0  0  0  0  0  0
    9.8112    8.6272   24.6539 H    0  0  0  0  0  0  0  0  0  0  0  0
    5.4526    9.3380   26.9217 H    0  0  0  0  0  0  0  0  0  0  0  0
    4.9833   11.6424   27.7256 H    0  0  0  0  0  0  0  0  0  0  0  0
    6.1646   13.5665   26.7132 H    0  0  0  0  0  0  0  0  0  0  0  0
    8.3864   14.1523   25.4370 H    0  0  0  0  0  0  0  0  0  0  0  0
   10.0086   14.9834   24.9569 H    0  0  0  0  0  0  0  0  0  0  0  0
    9.7205   16.4829   24.1363 H    0  0  0  0  0  0  0  0  0  0  0  0
   11.6980   14.2506   23.3883 H    0  0  0  0  0  0  0  0  0  0  0  0
   12.0843   15.8596   23.9454 H    0  0  0  0  0  0  0  0  0  0  0  0
   12.4022   15.5063   21.4471 H    0  0  0  0  0  0  0  0  0  0  0  0
   11.3702   16.8727   21.8446 H    0  0  0  0  0  0  0  0  0  0  0  0
   10.4466   14.0568   21.0569 H    0  0  0  0  0  0  0  0  0  0  0  0
   10.7703   15.0204   17.7145 H    0  0  0  0  0  0  0  0  0  0  0  0
   10.9428   13.7928   18.9658 H    0  0  0  0  0  0  0  0  0  0  0  0
    8.1266   14.9823   21.0670 H    0  0  0  0  0  0  0  0  0  0  0  0
    8.6917   16.4584   21.7749 H    0  0  0  0  0  0  0  0  0  0  0  0
 10 11  1  0  0  0  0
  9 10  1  0  0  0  0
  8  9  2  0  0  0  0
  7  8  1  0  0  0  0
  6  7  2  0  0  0  0
  4  6  1  0  0  0  0
  3  4  2  0  0  0  0
  2  3  1  0  0  0  0
  1  2  1  0  0  0  0
 22  1  1  0  0  0  0
 23  1  1  0  0  0  0
 24  1  1  0  0  0  0
  5  4  1  0  0  0  0
 25  6  1  0  0  0  0
 26  7  1  0  0  0  0
 27  8  1  0  0  0  0
 28 10  1  0  0  0  0
 12 11  2  0  0  0  0
 13 11  1  0  0  0  0
 14 13  1  0  0  0  0
 15 14  1  0  0  0  0
 29 14  1  0  0  0  0
 30 14  1  0  0  0  0
 16 15  1  0  0  0  0
 31 15  1  0  0  0  0
 32 15  1  0  0  0  0
 17 16  1  0  0  0  0
 33 16  1  0  0  0  0
 34 16  1  0  0  0  0
 18 17  1  0  0  0  0
 21 17  1  0  0  0  0
 35 17  1  0  0  0  0
 19 18  1  0  0  0  0
 20 18  2  0  0  0  0
 36 19  1  0  0  0  0
 37 19  1  0  0  0  0
 38 21  1  0  0  0  0
 39 21  1  0  0  0  0
  9  3  1  0  0  0  0
 21 13  1  0  0  0  0
M  END
>  <FittedScore>
-33.55

$$$$
