A71EV2A-x3593a_lowest-energy
  FITTED

 37 39     0  0  0  0  0  0  0999 V2000
    8.7639   14.4867   24.6203 O    0  0  0  0  0  0  0  0  0  0  0  0
    9.2524   13.5834   23.9722 C    0  0  0  0  0  0  0  0  0  0  0  0
    8.8672   12.1373   24.1185 C    0  0  0  0  0  0  0  0  0  0  0  0
    7.8873   11.6069   24.9533 C    0  0  0  0  0  0  0  0  0  0  0  0
    7.0123   12.2026   25.8769 C    0  0  0  0  0  0  0  0  0  0  0  0
    6.1315   11.3761   26.6003 C    0  0  0  0  0  0  0  0  0  0  0  0
    6.1170    9.9841   26.3820 C    0  0  0  0  0  0  0  0  0  0  0  0
    6.9904    9.4070   25.4444 C    0  0  0  0  0  0  0  0  0  0  0  0
    7.8867   10.2425   24.7631 C    0  0  0  0  0  0  0  0  0  0  0  0
    8.8598    9.9410   23.8608 N    0  0  0  0  0  0  0  0  0  0  0  0
    9.2509    8.6072   23.4013 C    0  0  0  0  0  0  0  0  0  0  0  0
    9.5353   11.0235   23.3818 N    0  0  0  0  0  0  0  0  0  0  0  0
   10.3490   13.7550   23.1927 N    0  0  0  0  0  0  0  0  0  0  0  0
   11.3092   14.8652   23.3167 C    0  0  0  0  0  0  0  0  0  0  0  0
   12.3955   14.4446   24.3277 C    0  0  0  0  0  0  0  0  0  0  0  0
   11.8829   15.3020   21.9428 C    0  0  0  0  0  0  0  0  0  0  0  0
   10.8416   15.7423   20.9240 C    0  0  0  0  0  0  0  0  0  0  0  0
    9.6925   16.6070   21.2337 N    0  0  0  0  0  0  0  0  0  0  0  0
    9.0743   16.7023   19.9107 C    0  0  0  0  0  0  0  0  0  0  0  0
    9.7442   15.9699   18.9648 O    0  0  0  0  0  0  0  0  0  0  0  0
   10.8201   15.3903   19.5835 C    0  0  0  0  0  0  0  0  0  0  0  0
    7.0055   13.2754   26.0470 H    0  0  0  0  0  0  0  0  0  0  0  0
    5.4616   11.8190   27.3293 H    0  0  0  0  0  0  0  0  0  0  0  0
    5.4300    9.3526   26.9386 H    0  0  0  0  0  0  0  0  0  0  0  0
    6.9842    8.3320   25.2750 H    0  0  0  0  0  0  0  0  0  0  0  0
    8.3951    8.0526   23.0121 H    0  0  0  0  0  0  0  0  0  0  0  0
    9.6810    8.0254   24.2197 H    0  0  0  0  0  0  0  0  0  0  0  0
    9.9986    8.6358   22.6034 H    0  0  0  0  0  0  0  0  0  0  0  0
   10.6995   12.9338   22.7173 H    0  0  0  0  0  0  0  0  0  0  0  0
   10.8197   15.7496   23.7384 H    0  0  0  0  0  0  0  0  0  0  0  0
   13.1086   15.2564   24.4875 H    0  0  0  0  0  0  0  0  0  0  0  0
   12.9509   13.5721   23.9699 H    0  0  0  0  0  0  0  0  0  0  0  0
   11.9575   14.1965   25.2988 H    0  0  0  0  0  0  0  0  0  0  0  0
   12.4783   14.4870   21.5199 H    0  0  0  0  0  0  0  0  0  0  0  0
   12.5712   16.1393   22.0885 H    0  0  0  0  0  0  0  0  0  0  0  0
    8.1760   17.2870   19.7328 H    0  0  0  0  0  0  0  0  0  0  0  0
   11.5481   14.7621   19.0775 H    0  0  0  0  0  0  0  0  0  0  0  0
  2  1  2  0  0  0  0
  3  2  1  0  0  0  0
 12  3  2  0  0  0  0
  4  3  1  0  0  0  0
  5  4  1  0  0  0  0
 22  5  1  0  0  0  0
  6  5  2  0  0  0  0
 23  6  1  0  0  0  0
  7  6  1  0  0  0  0
 24  7  1  0  0  0  0
  8  7  2  0  0  0  0
 25  8  1  0  0  0  0
  9  8  1  0  0  0  0
 10  9  1  0  0  0  0
 11 10  1  0  0  0  0
 26 11  1  0  0  0  0
 27 11  1  0  0  0  0
 28 11  1  0  0  0  0
 13  2  1  0  0  0  0
 29 13  1  0  0  0  0
 14 13  1  0  0  0  0
 15 14  1  0  0  0  0
 30 14  1  0  0  0  0
 31 15  1  0  0  0  0
 32 15  1  0  0  0  0
 33 15  1  0  0  0  0
 16 14  1  0  0  0  0
 34 16  1  0  0  0  0
 35 16  1  0  0  0  0
 17 16  1  0  0  0  0
 21 17  2  0  0  0  0
 18 17  1  0  0  0  0
 19 18  2  0  0  0  0
 36 19  1  0  0  0  0
 20 19  1  0  0  0  0
 37 21  1  0  0  0  0
  9  4  2  0  0  0  0
 12 10  1  0  0  0  0
 21 20  1  0  0  0  0
M  END
>  <FittedScore>
-26.47

$$$$
