A71EV2A-x5381a_best-RMSD
  FITTED

 43 45     0  0  0  0  0  0  0999 V2000
   10.2348   14.9960   25.3529 O    0  0  0  0  0  0  0  0  0  0  0  0
   10.2251   15.2366   24.1576 C    0  0  0  0  0  0  0  0  0  0  0  0
   11.5333   15.7266   23.5223 C    0  0  0  0  0  0  0  0  0  0  0  0
   11.4176   16.2568   22.0704 C    0  0  0  0  0  0  0  0  0  0  0  0
   10.5567   15.2941   21.2165 C    0  0  0  0  0  0  0  0  0  0  0  0
   10.4603   15.7544   19.7590 C    0  0  0  0  0  0  0  0  0  0  0  0
    9.9346   16.7998   19.4176 O    0  0  0  0  0  0  0  0  0  0  0  0
   10.7972   14.8320   18.8350 N    0  0  0  0  0  0  0  0  0  0  0  0
    9.1544   15.1438   21.8602 C    0  0  0  0  0  0  0  0  0  0  0  0
    9.1432   14.9402   23.3504 N    0  0  0  0  0  0  0  0  0  0  0  0
    7.8813   14.2963   23.8934 C    0  0  0  0  0  0  0  0  0  0  0  0
    6.5269   14.7832   23.2535 C    0  0  0  0  0  0  0  0  0  0  0  0
    6.2393   16.3013   23.4428 C    0  0  0  0  0  0  0  0  0  0  0  0
    8.0157   12.7505   24.0070 C    0  0  0  0  0  0  0  0  0  0  0  0
    7.1578   12.0134   24.8549 C    0  0  0  0  0  0  0  0  0  0  0  0
    6.1822   12.4132   25.7215 N    0  0  0  0  0  0  0  0  0  0  0  0
    5.6085   11.3200   26.2823 C    0  0  0  0  0  0  0  0  0  0  0  0
    6.1292   10.1720   25.8618 C    0  0  0  0  0  0  0  0  0  0  0  0
    7.1816   10.6249   24.9211 C    0  0  0  0  0  0  0  0  0  0  0  0
    8.0995    9.8800   24.1782 C    0  0  0  0  0  0  0  0  0  0  0  0
    9.0169   10.5747   23.3739 C    0  0  0  0  0  0  0  0  0  0  0  0
    8.9695   11.9812   23.2839 C    0  0  0  0  0  0  0  0  0  0  0  0
   11.9567   16.5198   24.1452 H    0  0  0  0  0  0  0  0  0  0  0  0
   12.2440   14.8966   23.5433 H    0  0  0  0  0  0  0  0  0  0  0  0
   10.9704   17.2571   22.0821 H    0  0  0  0  0  0  0  0  0  0  0  0
   12.4158   16.3556   21.6393 H    0  0  0  0  0  0  0  0  0  0  0  0
   11.0374   14.3078   21.2580 H    0  0  0  0  0  0  0  0  0  0  0  0
   10.7202   15.0486   17.8495 H    0  0  0  0  0  0  0  0  0  0  0  0
   10.9816   13.8730   19.1185 H    0  0  0  0  0  0  0  0  0  0  0  0
    8.5741   16.0418   21.6361 H    0  0  0  0  0  0  0  0  0  0  0  0
    8.6587   14.3166   21.3478 H    0  0  0  0  0  0  0  0  0  0  0  0
    7.7809   14.6410   24.9279 H    0  0  0  0  0  0  0  0  0  0  0  0
    6.4751   14.5208   22.1923 H    0  0  0  0  0  0  0  0  0  0  0  0
    5.6900   14.2412   23.6990 H    0  0  0  0  0  0  0  0  0  0  0  0
    5.6619   16.6824   22.5980 H    0  0  0  0  0  0  0  0  0  0  0  0
    7.1466   16.9056   23.5175 H    0  0  0  0  0  0  0  0  0  0  0  0
    5.6619   16.4666   24.3539 H    0  0  0  0  0  0  0  0  0  0  0  0
    6.0332   13.3918   25.9902 H    0  0  0  0  0  0  0  0  0  0  0  0
    4.8018   11.4411   27.0014 H    0  0  0  0  0  0  0  0  0  0  0  0
    5.8220    9.1696   26.1604 H    0  0  0  0  0  0  0  0  0  0  0  0
    8.1218    8.7960   24.2391 H    0  0  0  0  0  0  0  0  0  0  0  0
    9.7586   10.0226   22.8056 H    0  0  0  0  0  0  0  0  0  0  0  0
    9.6956   12.4484   22.6241 H    0  0  0  0  0  0  0  0  0  0  0  0
  9 10  1  0  0  0  0
  5  9  1  0  0  0  0
  6  5  1  0  0  0  0
  4  5  1  0  0  0  0
  3  4  1  0  0  0  0
  2  3  1  0  0  0  0
  1  2  2  0  0  0  0
 23  3  1  0  0  0  0
 24  3  1  0  0  0  0
 25  4  1  0  0  0  0
 26  4  1  0  0  0  0
 27  5  1  0  0  0  0
  7  6  2  0  0  0  0
  8  6  1  0  0  0  0
 28  8  1  0  0  0  0
 29  8  1  0  0  0  0
 30  9  1  0  0  0  0
 31  9  1  0  0  0  0
 11 10  1  0  0  0  0
 12 11  1  0  0  0  0
 32 11  1  0  0  0  0
 33 12  1  0  0  0  0
 34 12  1  0  0  0  0
 13 12  1  0  0  0  0
 35 13  1  0  0  0  0
 36 13  1  0  0  0  0
 37 13  1  0  0  0  0
 14 11  1  0  0  0  0
 22 14  1  0  0  0  0
 15 14  2  0  0  0  0
 16 15  1  0  0  0  0
 38 16  1  0  0  0  0
 17 16  1  0  0  0  0
 39 17  1  0  0  0  0
 18 17  2  0  0  0  0
 40 18  1  0  0  0  0
 19 18  1  0  0  0  0
 20 19  2  0  0  0  0
 41 20  1  0  0  0  0
 21 20  1  0  0  0  0
 42 21  1  0  0  0  0
 43 22  1  0  0  0  0
 10  2  1  0  0  0  0
 19 15  1  0  0  0  0
 22 21  2  0  0  0  0
M  END
>  <FittedScore>
-34.62

$$$$
