A71EV2A-x6973a_best-RMSD
  FITTED

 54 55     0  0  0  0  0  0  0999 V2000
    5.6302   17.3267   23.2979 C    0  0  0  0  0  0  0  0  0  0  0  0
    4.6708   16.3707   23.8307 O    0  0  0  0  0  0  0  0  0  0  0  0
    4.2319   15.2022   23.0475 C    0  0  0  0  0  0  0  0  0  0  0  0
    3.1688   14.5011   23.9438 C    0  0  0  0  0  0  0  0  0  0  0  0
    3.5383   15.6876   21.7233 C    0  0  0  0  0  0  0  0  0  0  0  0
    5.3848   14.2037   22.7751 C    0  0  0  0  0  0  0  0  0  0  0  0
    5.3600   13.4226   21.8374 O    0  0  0  0  0  0  0  0  0  0  0  0
    6.3548   14.1617   23.7287 N    0  0  0  0  0  0  0  0  0  0  0  0
    7.4289   13.1678   23.8780 C    0  0  0  0  0  0  0  0  0  0  0  0
    8.7480   13.8682   24.2562 C    0  0  0  0  0  0  0  0  0  0  0  0
    9.2319   13.7015   25.3631 O    0  0  0  0  0  0  0  0  0  0  0  0
    9.4013   14.6433   23.3195 N    0  0  0  0  0  0  0  0  0  0  0  0
   10.6364   15.4223   23.5823 C    0  0  0  0  0  0  0  0  0  0  0  0
   11.1518   15.9961   22.2493 C    0  0  0  0  0  0  0  0  0  0  0  0
   10.4723   15.0816   21.2178 C    0  0  0  0  0  0  0  0  0  0  0  0
   10.4024   15.6265   19.7914 C    0  0  0  0  0  0  0  0  0  0  0  0
   10.7416   14.7553   18.8207 N    0  0  0  0  0  0  0  0  0  0  0  0
    9.8950   16.6947   19.5133 O    0  0  0  0  0  0  0  0  0  0  0  0
    9.1116   14.7649   21.8680 C    0  0  0  0  0  0  0  0  0  0  0  0
    7.0009   12.0337   24.8487 C    0  0  0  0  0  0  0  0  0  0  0  0
    6.0218   12.2527   25.8525 C    0  0  0  0  0  0  0  0  0  0  0  0
    5.5537   11.2059   26.6484 C    0  0  0  0  0  0  0  0  0  0  0  0
    6.0608    9.9182   26.4676 C    0  0  0  0  0  0  0  0  0  0  0  0
    7.0728    9.6916   25.5302 C    0  0  0  0  0  0  0  0  0  0  0  0
    7.5892   10.7442   24.7497 C    0  0  0  0  0  0  0  0  0  0  0  0
    9.0189   10.4885   23.6948 S    0  0  0  0  0  0  0  0  0  0  0  0
    9.2396    8.7011   23.4490 C    0  0  0  0  0  0  0  0  0  0  0  0
    5.1993   17.8924   22.4691 H    0  0  0  0  0  0  0  0  0  0  0  0
    6.5502   16.8493   22.9601 H    0  0  0  0  0  0  0  0  0  0  0  0
    5.8841   18.0293   24.0941 H    0  0  0  0  0  0  0  0  0  0  0  0
    2.2877   15.1323   24.1045 H    0  0  0  0  0  0  0  0  0  0  0  0
    3.5795   14.2541   24.9252 H    0  0  0  0  0  0  0  0  0  0  0  0
    2.8276   13.5661   23.4901 H    0  0  0  0  0  0  0  0  0  0  0  0
    2.8499   16.5184   21.9105 H    0  0  0  0  0  0  0  0  0  0  0  0
    2.9539   14.8884   21.2542 H    0  0  0  0  0  0  0  0  0  0  0  0
    4.2744   16.0223   20.9836 H    0  0  0  0  0  0  0  0  0  0  0  0
    6.2820   14.8257   24.4981 H    0  0  0  0  0  0  0  0  0  0  0  0
    7.5526   12.6947   22.9046 H    0  0  0  0  0  0  0  0  0  0  0  0
   11.3970   14.7775   24.0254 H    0  0  0  0  0  0  0  0  0  0  0  0
   10.4237   16.2275   24.2901 H    0  0  0  0  0  0  0  0  0  0  0  0
   12.2419   15.9482   22.1717 H    0  0  0  0  0  0  0  0  0  0  0  0
   10.8393   17.0390   22.1357 H    0  0  0  0  0  0  0  0  0  0  0  0
   11.0534   14.1493   21.2052 H    0  0  0  0  0  0  0  0  0  0  0  0
   10.8929   13.7755   19.0442 H    0  0  0  0  0  0  0  0  0  0  0  0
   10.6682   15.0301   17.8480 H    0  0  0  0  0  0  0  0  0  0  0  0
    8.7204   13.8501   21.4237 H    0  0  0  0  0  0  0  0  0  0  0  0
    8.3841   15.5642   21.6988 H    0  0  0  0  0  0  0  0  0  0  0  0
    5.6020   13.2374   26.0299 H    0  0  0  0  0  0  0  0  0  0  0  0
    4.7920   11.3944   27.3983 H    0  0  0  0  0  0  0  0  0  0  0  0
    5.6873    9.0957   27.0735 H    0  0  0  0  0  0  0  0  0  0  0  0
    7.4685    8.6850   25.4648 H    0  0  0  0  0  0  0  0  0  0  0  0
    8.3063    8.2581   23.0978 H    0  0  0  0  0  0  0  0  0  0  0  0
    9.5611    8.2174   24.3753 H    0  0  0  0  0  0  0  0  0  0  0  0
   10.0098    8.5521   22.6926 H    0  0  0  0  0  0  0  0  0  0  0  0
  8  9  1  0  0  0  0
  6  8  1  0  0  0  0
  3  6  1  0  0  0  0
  2  3  1  0  0  0  0
  1  2  1  0  0  0  0
 28  1  1  0  0  0  0
 29  1  1  0  0  0  0
 30  1  1  0  0  0  0
  4  3  1  0  0  0  0
  5  3  1  0  0  0  0
 31  4  1  0  0  0  0
 32  4  1  0  0  0  0
 33  4  1  0  0  0  0
 34  5  1  0  0  0  0
 35  5  1  0  0  0  0
 36  5  1  0  0  0  0
  7  6  2  0  0  0  0
 37  8  1  0  0  0  0
 10  9  1  0  0  0  0
 20  9  1  0  0  0  0
 38  9  1  0  0  0  0
 11 10  2  0  0  0  0
 12 10  1  0  0  0  0
 13 12  1  0  0  0  0
 14 13  1  0  0  0  0
 39 13  1  0  0  0  0
 40 13  1  0  0  0  0
 15 14  1  0  0  0  0
 41 14  1  0  0  0  0
 42 14  1  0  0  0  0
 16 15  1  0  0  0  0
 19 15  1  0  0  0  0
 43 15  1  0  0  0  0
 17 16  1  0  0  0  0
 18 16  2  0  0  0  0
 44 17  1  0  0  0  0
 45 17  1  0  0  0  0
 46 19  1  0  0  0  0
 47 19  1  0  0  0  0
 21 20  2  0  0  0  0
 22 21  1  0  0  0  0
 48 21  1  0  0  0  0
 23 22  2  0  0  0  0
 49 22  1  0  0  0  0
 24 23  1  0  0  0  0
 50 23  1  0  0  0  0
 25 24  2  0  0  0  0
 51 24  1  0  0  0  0
 26 25  1  0  0  0  0
 27 26  1  0  0  0  0
 52 27  1  0  0  0  0
 53 27  1  0  0  0  0
 54 27  1  0  0  0  0
 19 12  1  0  0  0  0
 25 20  1  0  0  0  0
M  END
>  <FittedScore>
-41.86

$$$$
