A71EV2A-x5798b_lowest-energy
  FITTED

 37 39     0  0  0  0  0  0  0999 V2000
    9.7537   15.2920   27.3237 N    0  0  0  0  0  0  0  0  0  0  0  0
   10.8283   15.4246   26.5157 C    0  0  0  0  0  0  0  0  0  0  0  0
   11.9161   15.6857   26.9888 O    0  0  0  0  0  0  0  0  0  0  0  0
   10.5817   15.2776   25.0136 C    0  0  0  0  0  0  0  0  0  0  0  0
   11.0170   16.5295   24.2129 C    0  0  0  0  0  0  0  0  0  0  0  0
   10.7465   16.3345   22.7091 C    0  0  0  0  0  0  0  0  0  0  0  0
   11.8966   15.9283   21.8288 C    0  0  0  0  0  0  0  0  0  0  0  0
   10.7659   14.9750   22.0716 C    0  0  0  0  0  0  0  0  0  0  0  0
   10.6908   13.8100   23.0509 N    0  0  0  0  0  0  0  0  0  0  0  0
    9.5793   12.9990   22.9372 C    0  0  0  0  0  0  0  0  0  0  0  0
    8.5134   13.3757   22.4686 O    0  0  0  0  0  0  0  0  0  0  0  0
    9.6630   11.5986   23.5304 C    0  0  0  0  0  0  0  0  0  0  0  0
    8.5787   11.2061   24.5476 C    0  0  0  0  0  0  0  0  0  0  0  0
    7.9588   12.1764   25.3674 C    0  0  0  0  0  0  0  0  0  0  0  0
    6.9183   11.8236   26.2350 C    0  0  0  0  0  0  0  0  0  0  0  0
    6.4904   10.4917   26.3115 C    0  0  0  0  0  0  0  0  0  0  0  0
    7.1265    9.5096   25.5389 C    0  0  0  0  0  0  0  0  0  0  0  0
    8.1825    9.8526   24.6764 C    0  0  0  0  0  0  0  0  0  0  0  0
    8.9966    8.5849   23.8122 CL   0  0  0  0  0  0  0  0  0  0  0  0
   11.2890   14.0305   24.4045 C    0  0  0  0  0  0  0  0  0  0  0  0
    8.8132   15.2116   26.9558 H    0  0  0  0  0  0  0  0  0  0  0  0
    9.8729   15.4306   28.3155 H    0  0  0  0  0  0  0  0  0  0  0  0
    9.4990   15.1773   24.8612 H    0  0  0  0  0  0  0  0  0  0  0  0
   12.0691   16.7636   24.3979 H    0  0  0  0  0  0  0  0  0  0  0  0
   10.4546   17.3942   24.5764 H    0  0  0  0  0  0  0  0  0  0  0  0
   10.0162   17.0315   22.3068 H    0  0  0  0  0  0  0  0  0  0  0  0
   12.8634   15.7012   22.2721 H    0  0  0  0  0  0  0  0  0  0  0  0
   11.9585   16.4043   20.8506 H    0  0  0  0  0  0  0  0  0  0  0  0
   10.1693   14.6786   21.2118 H    0  0  0  0  0  0  0  0  0  0  0  0
   10.6431   11.3558   23.9479 H    0  0  0  0  0  0  0  0  0  0  0  0
    9.5998   10.9678   22.6426 H    0  0  0  0  0  0  0  0  0  0  0  0
    8.2649   13.2162   25.3371 H    0  0  0  0  0  0  0  0  0  0  0  0
    6.4439   12.5879   26.8465 H    0  0  0  0  0  0  0  0  0  0  0  0
    5.6724   10.2199   26.9770 H    0  0  0  0  0  0  0  0  0  0  0  0
    6.7995    8.4742   25.6218 H    0  0  0  0  0  0  0  0  0  0  0  0
   12.3688   14.1942   24.3133 H    0  0  0  0  0  0  0  0  0  0  0  0
   11.1831   13.1914   25.0915 H    0  0  0  0  0  0  0  0  0  0  0  0
  8  9  1  0  0  0  0
  7  8  1  0  0  0  0
  6  7  1  0  0  0  0
  5  6  1  0  0  0  0
  4  5  1  0  0  0  0
  2  4  1  0  0  0  0
  1  2  1  0  0  0  0
 21  1  1  0  0  0  0
 22  1  1  0  0  0  0
  3  2  2  0  0  0  0
 23  4  1  0  0  0  0
 24  5  1  0  0  0  0
 25  5  1  0  0  0  0
 26  6  1  0  0  0  0
 27  7  1  0  0  0  0
 28  7  1  0  0  0  0
 29  8  1  0  0  0  0
 10  9  1  0  0  0  0
 20  9  1  0  0  0  0
 11 10  2  0  0  0  0
 12 10  1  0  0  0  0
 13 12  1  0  0  0  0
 30 12  1  0  0  0  0
 31 12  1  0  0  0  0
 14 13  2  0  0  0  0
 15 14  1  0  0  0  0
 32 14  1  0  0  0  0
 16 15  2  0  0  0  0
 33 15  1  0  0  0  0
 17 16  1  0  0  0  0
 34 16  1  0  0  0  0
 18 17  2  0  0  0  0
 35 17  1  0  0  0  0
 19 18  1  0  0  0  0
 36 20  1  0  0  0  0
 37 20  1  0  0  0  0
  8  6  1  0  0  0  0
 18 13  1  0  0  0  0
 20  4  1  0  0  0  0
M  END
>  <FittedScore>
-20.85

$$$$
