A71EV2A-x5798b_best-RMSD
  FITTED

 37 39     0  0  0  0  0  0  0999 V2000
   10.9545   14.6741   18.6896 N    0  0  0  0  0  0  0  0  0  0  0  0
   10.5836   15.6509   19.5389 C    0  0  0  0  0  0  0  0  0  0  0  0
    9.9911   16.6305   19.1355 O    0  0  0  0  0  0  0  0  0  0  0  0
   10.7135   15.2720   21.0056 C    0  0  0  0  0  0  0  0  0  0  0  0
   11.3135   16.4074   21.8975 C    0  0  0  0  0  0  0  0  0  0  0  0
   11.5904   15.7954   23.2765 C    0  0  0  0  0  0  0  0  0  0  0  0
   10.7153   15.9905   24.4923 C    0  0  0  0  0  0  0  0  0  0  0  0
   10.7169   14.6808   23.7760 C    0  0  0  0  0  0  0  0  0  0  0  0
    9.5391   14.2185   22.9450 N    0  0  0  0  0  0  0  0  0  0  0  0
    8.5987   13.3925   23.5113 C    0  0  0  0  0  0  0  0  0  0  0  0
    7.5805   13.0827   22.8990 O    0  0  0  0  0  0  0  0  0  0  0  0
    8.7899   12.9867   24.9779 C    0  0  0  0  0  0  0  0  0  0  0  0
    7.9423   11.8058   25.3857 C    0  0  0  0  0  0  0  0  0  0  0  0
    6.8965   12.0632   26.2872 C    0  0  0  0  0  0  0  0  0  0  0  0
    6.0619   11.0301   26.7125 C    0  0  0  0  0  0  0  0  0  0  0  0
    6.2366    9.7420   26.1906 C    0  0  0  0  0  0  0  0  0  0  0  0
    7.2579    9.4902   25.2602 C    0  0  0  0  0  0  0  0  0  0  0  0
    8.1412   10.5035   24.8711 C    0  0  0  0  0  0  0  0  0  0  0  0
    9.4508   10.0845   23.7939 CL   0  0  0  0  0  0  0  0  0  0  0  0
    9.3508   14.8292   21.6053 C    0  0  0  0  0  0  0  0  0  0  0  0
   10.9511   14.8406   17.6954 H    0  0  0  0  0  0  0  0  0  0  0  0
   11.1737   13.7431   19.0367 H    0  0  0  0  0  0  0  0  0  0  0  0
   11.4013   14.4145   21.0778 H    0  0  0  0  0  0  0  0  0  0  0  0
   10.6104   17.2441   21.9662 H    0  0  0  0  0  0  0  0  0  0  0  0
   12.2290   16.7982   21.4501 H    0  0  0  0  0  0  0  0  0  0  0  0
   12.6544   15.6659   23.4613 H    0  0  0  0  0  0  0  0  0  0  0  0
    9.8271   16.6116   24.4017 H    0  0  0  0  0  0  0  0  0  0  0  0
   11.2055   16.0522   25.4604 H    0  0  0  0  0  0  0  0  0  0  0  0
   11.2453   13.7701   24.0346 H    0  0  0  0  0  0  0  0  0  0  0  0
    8.5942   13.8521   25.6141 H    0  0  0  0  0  0  0  0  0  0  0  0
    9.8218   12.6888   25.1780 H    0  0  0  0  0  0  0  0  0  0  0  0
    6.7345   13.0694   26.6671 H    0  0  0  0  0  0  0  0  0  0  0  0
    5.2863   11.2414   27.4384 H    0  0  0  0  0  0  0  0  0  0  0  0
    5.5793    8.9403   26.5087 H    0  0  0  0  0  0  0  0  0  0  0  0
    7.3650    8.4932   24.8393 H    0  0  0  0  0  0  0  0  0  0  0  0
    8.6706   15.6847   21.6960 H    0  0  0  0  0  0  0  0  0  0  0  0
    8.8715   14.1162   20.9271 H    0  0  0  0  0  0  0  0  0  0  0  0
  8  9  1  0  0  0  0
  7  8  1  0  0  0  0
  6  7  1  0  0  0  0
  5  6  1  0  0  0  0
  4  5  1  0  0  0  0
  2  4  1  0  0  0  0
  1  2  1  0  0  0  0
 21  1  1  0  0  0  0
 22  1  1  0  0  0  0
  3  2  2  0  0  0  0
 23  4  1  0  0  0  0
 24  5  1  0  0  0  0
 25  5  1  0  0  0  0
 26  6  1  0  0  0  0
 27  7  1  0  0  0  0
 28  7  1  0  0  0  0
 29  8  1  0  0  0  0
 10  9  1  0  0  0  0
 20  9  1  0  0  0  0
 11 10  2  0  0  0  0
 12 10  1  0  0  0  0
 13 12  1  0  0  0  0
 30 12  1  0  0  0  0
 31 12  1  0  0  0  0
 14 13  2  0  0  0  0
 15 14  1  0  0  0  0
 32 14  1  0  0  0  0
 16 15  2  0  0  0  0
 33 15  1  0  0  0  0
 17 16  1  0  0  0  0
 34 16  1  0  0  0  0
 18 17  2  0  0  0  0
 35 17  1  0  0  0  0
 19 18  1  0  0  0  0
 36 20  1  0  0  0  0
 37 20  1  0  0  0  0
  8  6  1  0  0  0  0
 18 13  1  0  0  0  0
 20  4  1  0  0  0  0
M  END
>  <FittedScore>
-33.58

$$$$
