A71EV2A-x4031b_best-RMSD
  FITTED

 38 39     0  0  0  0  0  0  0999 V2000
    9.9262   16.7008   19.4306 O    0  0  0  0  0  0  0  0  0  0  0  0
   10.4363   15.6374   19.7370 C    0  0  0  0  0  0  0  0  0  0  0  0
   10.8923   14.7905   18.7884 N    0  0  0  0  0  0  0  0  0  0  0  0
   10.4744   15.1023   21.1687 C    0  0  0  0  0  0  0  0  0  0  0  0
   11.5499   15.8289   22.0313 C    0  0  0  0  0  0  0  0  0  0  0  0
   11.5284   15.3148   23.5015 C    0  0  0  0  0  0  0  0  0  0  0  0
   10.0923   15.3036   24.0990 C    0  0  0  0  0  0  0  0  0  0  0  0
    9.0765   15.1622   21.8618 C    0  0  0  0  0  0  0  0  0  0  0  0
    9.1031   14.5672   23.2411 N    0  0  0  0  0  0  0  0  0  0  0  0
    8.3344   13.4734   23.5909 C    0  0  0  0  0  0  0  0  0  0  0  0
    7.5503   12.9522   22.8205 O    0  0  0  0  0  0  0  0  0  0  0  0
    8.4179   13.0397   24.8796 N    0  0  0  0  0  0  0  0  0  0  0  0
    7.8455   11.8384   25.4227 C    0  0  0  0  0  0  0  0  0  0  0  0
    8.1257   10.5468   24.9029 C    0  0  0  0  0  0  0  0  0  0  0  0
    9.1100   10.4258   23.9198 O    0  0  0  0  0  0  0  0  0  0  0  0
    9.5783    9.1566   23.3960 C    0  0  0  0  0  0  0  0  0  0  0  0
    6.9507   11.9508   26.5026 C    0  0  0  0  0  0  0  0  0  0  0  0
    6.3030   10.8035   26.9819 C    0  0  0  0  0  0  0  0  0  0  0  0
    6.5609    9.5735   26.3681 C    0  0  0  0  0  0  0  0  0  0  0  0
    7.4567    9.4416   25.3582 N    0  0  0  0  0  0  0  0  0  0  0  0
   10.8705   15.0687   17.8140 H    0  0  0  0  0  0  0  0  0  0  0  0
   11.1230   13.8271   19.0374 H    0  0  0  0  0  0  0  0  0  0  0  0
   10.7548   14.0412   21.1397 H    0  0  0  0  0  0  0  0  0  0  0  0
   12.5416   15.6464   21.6057 H    0  0  0  0  0  0  0  0  0  0  0  0
   11.3903   16.9130   22.0164 H    0  0  0  0  0  0  0  0  0  0  0  0
   11.9445   14.3024   23.5381 H    0  0  0  0  0  0  0  0  0  0  0  0
   12.1760   15.9440   24.1170 H    0  0  0  0  0  0  0  0  0  0  0  0
   10.1704   14.9042   25.1116 H    0  0  0  0  0  0  0  0  0  0  0  0
    9.7498   16.3344   24.2286 H    0  0  0  0  0  0  0  0  0  0  0  0
    8.3529   14.6785   21.2032 H    0  0  0  0  0  0  0  0  0  0  0  0
    8.7371   16.2001   21.9331 H    0  0  0  0  0  0  0  0  0  0  0  0
    8.7934   13.6710   25.5864 H    0  0  0  0  0  0  0  0  0  0  0  0
   10.3474    9.3479   22.6461 H    0  0  0  0  0  0  0  0  0  0  0  0
    8.7590    8.6024   22.9316 H    0  0  0  0  0  0  0  0  0  0  0  0
   10.0182    8.5561   24.1978 H    0  0  0  0  0  0  0  0  0  0  0  0
    6.7466   12.9175   26.9524 H    0  0  0  0  0  0  0  0  0  0  0  0
    5.6089   10.8703   27.8113 H    0  0  0  0  0  0  0  0  0  0  0  0
    6.0420    8.6866   26.7210 H    0  0  0  0  0  0  0  0  0  0  0  0
  9 10  1  0  0  0  0
  7  9  1  0  0  0  0
  6  7  1  0  0  0  0
  5  6  1  0  0  0  0
  4  5  1  0  0  0  0
  2  4  1  0  0  0  0
  1  2  2  0  0  0  0
  3  2  1  0  0  0  0
 21  3  1  0  0  0  0
 22  3  1  0  0  0  0
 23  4  1  0  0  0  0
 24  5  1  0  0  0  0
 25  5  1  0  0  0  0
 26  6  1  0  0  0  0
 27  6  1  0  0  0  0
 28  7  1  0  0  0  0
 29  7  1  0  0  0  0
  8  4  1  0  0  0  0
 30  8  1  0  0  0  0
 31  8  1  0  0  0  0
 11 10  2  0  0  0  0
 12 10  1  0  0  0  0
 32 12  1  0  0  0  0
 13 12  1  0  0  0  0
 14 13  1  0  0  0  0
 20 14  2  0  0  0  0
 15 14  1  0  0  0  0
 16 15  1  0  0  0  0
 33 16  1  0  0  0  0
 34 16  1  0  0  0  0
 35 16  1  0  0  0  0
 17 13  2  0  0  0  0
 36 17  1  0  0  0  0
 18 17  1  0  0  0  0
 37 18  1  0  0  0  0
 19 18  2  0  0  0  0
 38 19  1  0  0  0  0
  9  8  1  0  0  0  0
 20 19  1  0  0  0  0
M  END
>  <FittedScore>
-35.36

$$$$
