A71EV2A-x4207a_lowest-energy
  FITTED

 47 48     0  0  0  0  0  0  0999 V2000
    9.7804   16.6576   19.3547 O    0  0  0  0  0  0  0  0  0  0  0  0
   10.2968   15.6254   19.7273 C    0  0  0  0  0  0  0  0  0  0  0  0
   10.7274   14.7379   18.8146 N    0  0  0  0  0  0  0  0  0  0  0  0
   10.5474   15.2643   21.1864 C    0  0  0  0  0  0  0  0  0  0  0  0
   11.6636   16.1737   21.7709 C    0  0  0  0  0  0  0  0  0  0  0  0
   11.9370   15.8106   23.2468 C    0  0  0  0  0  0  0  0  0  0  0  0
   10.6406   15.7690   24.0923 C    0  0  0  0  0  0  0  0  0  0  0  0
    9.2680   15.3163   22.0805 C    0  0  0  0  0  0  0  0  0  0  0  0
    9.5474   14.9119   23.5108 N    0  0  0  0  0  0  0  0  0  0  0  0
    8.8930   13.9364   24.2508 C    0  0  0  0  0  0  0  0  0  0  0  0
    9.3020   13.6074   25.3531 O    0  0  0  0  0  0  0  0  0  0  0  0
    7.6087   13.2807   23.7076 C    0  0  0  0  0  0  0  0  0  0  0  0
    6.5550   14.3014   23.4988 N    0  0  0  0  0  0  0  0  0  0  0  0
    5.6107   14.3055   22.5253 C    0  0  0  0  0  0  0  0  0  0  0  0
    5.4940   13.4186   21.7002 O    0  0  0  0  0  0  0  0  0  0  0  0
    4.7099   15.5270   22.5269 C    0  0  0  0  0  0  0  0  0  0  0  0
    7.0890   12.1009   24.5832 C    0  0  0  0  0  0  0  0  0  0  0  0
    7.6654   10.8084   24.4623 C    0  0  0  0  0  0  0  0  0  0  0  0
    8.7550   10.6392   23.6106 O    0  0  0  0  0  0  0  0  0  0  0  0
    9.4648    9.4053   23.3687 C    0  0  0  0  0  0  0  0  0  0  0  0
    6.0664   12.2910   25.5480 C    0  0  0  0  0  0  0  0  0  0  0  0
    5.5790   11.2221   26.3079 C    0  0  0  0  0  0  0  0  0  0  0  0
    6.1031    9.9405   26.1290 C    0  0  0  0  0  0  0  0  0  0  0  0
    7.1381    9.7345   25.2136 C    0  0  0  0  0  0  0  0  0  0  0  0
   10.7063   14.9790   17.8294 H    0  0  0  0  0  0  0  0  0  0  0  0
   11.0299   13.7993   19.0783 H    0  0  0  0  0  0  0  0  0  0  0  0
   10.9049   14.2301   21.2303 H    0  0  0  0  0  0  0  0  0  0  0  0
   12.5839   16.0701   21.1873 H    0  0  0  0  0  0  0  0  0  0  0  0
   11.3625   17.2247   21.7045 H    0  0  0  0  0  0  0  0  0  0  0  0
   12.4456   14.8411   23.3019 H    0  0  0  0  0  0  0  0  0  0  0  0
   12.6251   16.5470   23.6711 H    0  0  0  0  0  0  0  0  0  0  0  0
   10.9290   15.4556   25.0980 H    0  0  0  0  0  0  0  0  0  0  0  0
   10.2562   16.7890   24.2181 H    0  0  0  0  0  0  0  0  0  0  0  0
    8.5212   14.6964   21.5895 H    0  0  0  0  0  0  0  0  0  0  0  0
    8.8534   16.3276   22.0732 H    0  0  0  0  0  0  0  0  0  0  0  0
    7.8584   12.8602   22.7288 H    0  0  0  0  0  0  0  0  0  0  0  0
    6.5549   15.0683   24.1678 H    0  0  0  0  0  0  0  0  0  0  0  0
    4.1786   15.6284   21.5749 H    0  0  0  0  0  0  0  0  0  0  0  0
    5.2874   16.4418   22.6831 H    0  0  0  0  0  0  0  0  0  0  0  0
    3.9688   15.4348   23.3242 H    0  0  0  0  0  0  0  0  0  0  0  0
    9.9183    9.0439   24.2918 H    0  0  0  0  0  0  0  0  0  0  0  0
   10.2584    9.6105   22.6449 H    0  0  0  0  0  0  0  0  0  0  0  0
    8.7955    8.6523   22.9507 H    0  0  0  0  0  0  0  0  0  0  0  0
    5.6298   13.2704   25.7240 H    0  0  0  0  0  0  0  0  0  0  0  0
    4.7886   11.3913   27.0344 H    0  0  0  0  0  0  0  0  0  0  0  0
    5.7174    9.1059   26.7097 H    0  0  0  0  0  0  0  0  0  0  0  0
    7.5379    8.7300   25.1193 H    0  0  0  0  0  0  0  0  0  0  0  0
 12 13  1  0  0  0  0
 10 12  1  0  0  0  0
  9 10  1  0  0  0  0
  7  9  1  0  0  0  0
  6  7  1  0  0  0  0
  5  6  1  0  0  0  0
  4  5  1  0  0  0  0
  2  4  1  0  0  0  0
  1  2  2  0  0  0  0
  3  2  1  0  0  0  0
 25  3  1  0  0  0  0
 26  3  1  0  0  0  0
 27  4  1  0  0  0  0
 28  5  1  0  0  0  0
 29  5  1  0  0  0  0
 30  6  1  0  0  0  0
 31  6  1  0  0  0  0
 32  7  1  0  0  0  0
 33  7  1  0  0  0  0
  8  4  1  0  0  0  0
 34  8  1  0  0  0  0
 35  8  1  0  0  0  0
 11 10  2  0  0  0  0
 36 12  1  0  0  0  0
 37 13  1  0  0  0  0
 14 13  1  0  0  0  0
 15 14  2  0  0  0  0
 16 14  1  0  0  0  0
 38 16  1  0  0  0  0
 39 16  1  0  0  0  0
 40 16  1  0  0  0  0
 17 12  1  0  0  0  0
 18 17  1  0  0  0  0
 24 18  2  0  0  0  0
 19 18  1  0  0  0  0
 20 19  1  0  0  0  0
 41 20  1  0  0  0  0
 42 20  1  0  0  0  0
 43 20  1  0  0  0  0
 21 17  2  0  0  0  0
 44 21  1  0  0  0  0
 22 21  1  0  0  0  0
 45 22  1  0  0  0  0
 23 22  2  0  0  0  0
 46 23  1  0  0  0  0
 47 24  1  0  0  0  0
  9  8  1  0  0  0  0
 24 23  1  0  0  0  0
M  END
>  <FittedScore>
-36.08

$$$$
