A71EV2A-x3210a_lowest-energy
  FITTED

 39 41     0  0  0  0  0  0  0999 V2000
    7.4923   13.2604   22.6315 O    0  0  0  0  0  0  0  0  0  0  0  0
    8.2714   13.8369   23.3787 C    0  0  0  0  0  0  0  0  0  0  0  0
    8.9747   14.9508   22.9636 N    0  0  0  0  0  0  0  0  0  0  0  0
    9.8378   15.8383   23.8200 C    0  0  0  0  0  0  0  0  0  0  0  0
   11.3095   15.8848   23.3301 C    0  0  0  0  0  0  0  0  0  0  0  0
   11.3931   16.3374   21.8460 C    0  0  0  0  0  0  0  0  0  0  0  0
    8.9908   15.4392   21.5431 C    0  0  0  0  0  0  0  0  0  0  0  0
   10.4376   15.4849   20.9609 C    0  0  0  0  0  0  0  0  0  0  0  0
   10.4631   15.9431   19.5036 C    0  0  0  0  0  0  0  0  0  0  0  0
   10.0447   17.0147   19.1100 O    0  0  0  0  0  0  0  0  0  0  0  0
   10.8279   15.0003   18.6183 N    0  0  0  0  0  0  0  0  0  0  0  0
    8.4780   13.3186   24.8113 C    0  0  0  0  0  0  0  0  0  0  0  0
    7.8923   11.9331   25.0667 C    0  0  0  0  0  0  0  0  0  0  0  0
    8.4365   10.7991   24.4443 C    0  0  0  0  0  0  0  0  0  0  0  0
    9.4807   10.6578   23.5839 N    0  0  0  0  0  0  0  0  0  0  0  0
    9.6292    9.3595   23.1931 N    0  0  0  0  0  0  0  0  0  0  0  0
    8.7354    8.6468   23.8066 C    0  0  0  0  0  0  0  0  0  0  0  0
    7.9182    9.5455   24.6391 C    0  0  0  0  0  0  0  0  0  0  0  0
    6.8127    9.3365   25.4706 C    0  0  0  0  0  0  0  0  0  0  0  0
    6.2504   10.4482   26.1247 C    0  0  0  0  0  0  0  0  0  0  0  0
    6.7815   11.7397   25.9171 C    0  0  0  0  0  0  0  0  0  0  0  0
    9.4234   16.8525   23.8108 H    0  0  0  0  0  0  0  0  0  0  0  0
    9.8441   15.5679   24.8765 H    0  0  0  0  0  0  0  0  0  0  0  0
   11.8860   16.5705   23.9546 H    0  0  0  0  0  0  0  0  0  0  0  0
   11.7653   14.8953   23.4401 H    0  0  0  0  0  0  0  0  0  0  0  0
   11.1428   17.4008   21.7713 H    0  0  0  0  0  0  0  0  0  0  0  0
   12.4208   16.2276   21.4898 H    0  0  0  0  0  0  0  0  0  0  0  0
    8.5335   16.4330   21.5022 H    0  0  0  0  0  0  0  0  0  0  0  0
    8.3825   14.8206   20.8803 H    0  0  0  0  0  0  0  0  0  0  0  0
   10.8114   14.4534   21.0139 H    0  0  0  0  0  0  0  0  0  0  0  0
   10.9800   14.0343   18.9145 H    0  0  0  0  0  0  0  0  0  0  0  0
   10.8285   15.2261   17.6282 H    0  0  0  0  0  0  0  0  0  0  0  0
    8.0556   14.0380   25.5206 H    0  0  0  0  0  0  0  0  0  0  0  0
    9.5485   13.2507   25.0335 H    0  0  0  0  0  0  0  0  0  0  0  0
    9.8808   11.4479   23.0875 H    0  0  0  0  0  0  0  0  0  0  0  0
    8.6320    7.5698   23.6931 H    0  0  0  0  0  0  0  0  0  0  0  0
    6.4138    8.3369   25.6274 H    0  0  0  0  0  0  0  0  0  0  0  0
    5.4043   10.3161   26.7921 H    0  0  0  0  0  0  0  0  0  0  0  0
    6.3194   12.5912   26.4131 H    0  0  0  0  0  0  0  0  0  0  0  0
  2  1  2  0  0  0  0
  3  2  1  0  0  0  0
  4  3  1  0  0  0  0
 22  4  1  0  0  0  0
 23  4  1  0  0  0  0
  5  4  1  0  0  0  0
 24  5  1  0  0  0  0
 25  5  1  0  0  0  0
  6  5  1  0  0  0  0
 26  6  1  0  0  0  0
 27  6  1  0  0  0  0
  7  3  1  0  0  0  0
 28  7  1  0  0  0  0
 29  7  1  0  0  0  0
  8  6  1  0  0  0  0
  9  8  1  0  0  0  0
 30  8  1  0  0  0  0
 10  9  2  0  0  0  0
 11  9  1  0  0  0  0
 31 11  1  0  0  0  0
 32 11  1  0  0  0  0
 12  2  1  0  0  0  0
 33 12  1  0  0  0  0
 34 12  1  0  0  0  0
 13 12  1  0  0  0  0
 21 13  1  0  0  0  0
 14 13  2  0  0  0  0
 15 14  1  0  0  0  0
 35 15  1  0  0  0  0
 16 15  1  0  0  0  0
 17 16  2  0  0  0  0
 36 17  1  0  0  0  0
 18 17  1  0  0  0  0
 19 18  2  0  0  0  0
 37 19  1  0  0  0  0
 20 19  1  0  0  0  0
 38 20  1  0  0  0  0
 39 21  1  0  0  0  0
  8  7  1  0  0  0  0
 18 14  1  0  0  0  0
 21 20  2  0  0  0  0
M  END
>  <FittedScore>
-33.22

$$$$
