A71EV2A-x3210a_best-RMSD
  FITTED

 39 41     0  0  0  0  0  0  0999 V2000
    7.5238   13.2483   22.8079 O    0  0  0  0  0  0  0  0  0  0  0  0
    8.2448   13.8481   23.5952 C    0  0  0  0  0  0  0  0  0  0  0  0
    8.9189   14.9918   23.2135 N    0  0  0  0  0  0  0  0  0  0  0  0
    9.8124   15.8426   24.0733 C    0  0  0  0  0  0  0  0  0  0  0  0
   11.2594   15.9490   23.5135 C    0  0  0  0  0  0  0  0  0  0  0  0
   11.2845   16.4040   22.0263 C    0  0  0  0  0  0  0  0  0  0  0  0
    8.8768   15.5513   21.8182 C    0  0  0  0  0  0  0  0  0  0  0  0
   10.2931   15.5669   21.1665 C    0  0  0  0  0  0  0  0  0  0  0  0
   10.2862   16.0320   19.7066 C    0  0  0  0  0  0  0  0  0  0  0  0
    9.8379   17.0994   19.3310 O    0  0  0  0  0  0  0  0  0  0  0  0
   10.7213   15.1206   18.8136 N    0  0  0  0  0  0  0  0  0  0  0  0
    8.3912   13.3251   25.0311 C    0  0  0  0  0  0  0  0  0  0  0  0
    7.8200   11.9200   25.2248 C    0  0  0  0  0  0  0  0  0  0  0  0
    8.3997   10.8251   24.5666 C    0  0  0  0  0  0  0  0  0  0  0  0
    9.4881   10.7285   23.7557 N    0  0  0  0  0  0  0  0  0  0  0  0
    9.6832    9.4502   23.3224 N    0  0  0  0  0  0  0  0  0  0  0  0
    8.7532    8.7072   23.8411 C    0  0  0  0  0  0  0  0  0  0  0  0
    7.8782    9.5626   24.6641 C    0  0  0  0  0  0  0  0  0  0  0  0
    6.7398    9.3029   25.4361 C    0  0  0  0  0  0  0  0  0  0  0  0
    6.1528   10.3732   26.1373 C    0  0  0  0  0  0  0  0  0  0  0  0
    6.6815   11.6774   26.0248 C    0  0  0  0  0  0  0  0  0  0  0  0
    9.3812   16.8427   24.1550 H    0  0  0  0  0  0  0  0  0  0  0  0
    9.8876   15.4996   25.1020 H    0  0  0  0  0  0  0  0  0  0  0  0
   11.8285   16.6613   24.1153 H    0  0  0  0  0  0  0  0  0  0  0  0
   11.7629   14.9825   23.6084 H    0  0  0  0  0  0  0  0  0  0  0  0
   11.0336   17.4685   21.9670 H    0  0  0  0  0  0  0  0  0  0  0  0
   12.2980   16.2946   21.6291 H    0  0  0  0  0  0  0  0  0  0  0  0
    8.4595   16.5647   21.8479 H    0  0  0  0  0  0  0  0  0  0  0  0
    8.2025   14.9974   21.1574 H    0  0  0  0  0  0  0  0  0  0  0  0
   10.6454   14.5284   21.2036 H    0  0  0  0  0  0  0  0  0  0  0  0
   10.7053   15.3326   17.8199 H    0  0  0  0  0  0  0  0  0  0  0  0
   10.9339   14.1773   19.1297 H    0  0  0  0  0  0  0  0  0  0  0  0
    7.9157   14.0254   25.7212 H    0  0  0  0  0  0  0  0  0  0  0  0
    9.4435   13.2749   25.3175 H    0  0  0  0  0  0  0  0  0  0  0  0
   10.0070   11.5414   23.4356 H    0  0  0  0  0  0  0  0  0  0  0  0
    8.6842    7.6319   23.6997 H    0  0  0  0  0  0  0  0  0  0  0  0
    6.3393    8.2977   25.5128 H    0  0  0  0  0  0  0  0  0  0  0  0
    5.2775   10.1970   26.7595 H    0  0  0  0  0  0  0  0  0  0  0  0
    6.1983   12.4968   26.5582 H    0  0  0  0  0  0  0  0  0  0  0  0
  2  1  2  0  0  0  0
  3  2  1  0  0  0  0
  4  3  1  0  0  0  0
 22  4  1  0  0  0  0
 23  4  1  0  0  0  0
  5  4  1  0  0  0  0
 24  5  1  0  0  0  0
 25  5  1  0  0  0  0
  6  5  1  0  0  0  0
 26  6  1  0  0  0  0
 27  6  1  0  0  0  0
  7  3  1  0  0  0  0
 28  7  1  0  0  0  0
 29  7  1  0  0  0  0
  8  6  1  0  0  0  0
  9  8  1  0  0  0  0
 30  8  1  0  0  0  0
 10  9  2  0  0  0  0
 11  9  1  0  0  0  0
 31 11  1  0  0  0  0
 32 11  1  0  0  0  0
 12  2  1  0  0  0  0
 33 12  1  0  0  0  0
 34 12  1  0  0  0  0
 13 12  1  0  0  0  0
 21 13  1  0  0  0  0
 14 13  2  0  0  0  0
 15 14  1  0  0  0  0
 35 15  1  0  0  0  0
 16 15  1  0  0  0  0
 17 16  2  0  0  0  0
 36 17  1  0  0  0  0
 18 17  1  0  0  0  0
 19 18  2  0  0  0  0
 37 19  1  0  0  0  0
 20 19  1  0  0  0  0
 38 20  1  0  0  0  0
 39 21  1  0  0  0  0
  8  7  1  0  0  0  0
 18 14  1  0  0  0  0
 21 20  2  0  0  0  0
M  END
>  <FittedScore>
-31.29

$$$$
