A71EV2A-x3223a_best-RMSD
  FITTED

 35 37     0  0  0  0  0  0  0999 V2000
    6.2829   13.4532   22.3838 O    0  0  0  0  0  0  0  0  0  0  0  0
    7.3438   13.2903   22.9641 C    0  0  0  0  0  0  0  0  0  0  0  0
    8.4447   14.0685   22.6963 N    0  0  0  0  0  0  0  0  0  0  0  0
    9.2829   14.6641   23.7965 C    0  0  0  0  0  0  0  0  0  0  0  0
   10.7771   14.8565   23.4248 C    0  0  0  0  0  0  0  0  0  0  0  0
   10.9386   15.6336   22.0918 C    0  0  0  0  0  0  0  0  0  0  0  0
    8.6069   14.8054   21.4076 C    0  0  0  0  0  0  0  0  0  0  0  0
   10.0994   14.9530   20.9767 C    0  0  0  0  0  0  0  0  0  0  0  0
   10.2656   15.6421   19.6251 C    0  0  0  0  0  0  0  0  0  0  0  0
    9.5546   16.5432   19.2271 O    0  0  0  0  0  0  0  0  0  0  0  0
   11.1890   15.1108   18.8058 N    0  0  0  0  0  0  0  0  0  0  0  0
    7.5071   12.2555   24.0543 C    0  0  0  0  0  0  0  0  0  0  0  0
    6.5168   11.9965   25.0238 C    0  0  0  0  0  0  0  0  0  0  0  0
    5.2521   12.6636   25.3907 C    0  0  0  0  0  0  0  0  0  0  0  0
    4.7974   12.1014   26.4727 N    0  0  0  0  0  0  0  0  0  0  0  0
    5.6682   11.1174   26.8561 N    0  0  0  0  0  0  0  0  0  0  0  0
    6.7196   11.0416   25.9981 C    0  0  0  0  0  0  0  0  0  0  0  0
    7.8124   10.2429   26.0644 N    0  0  0  0  0  0  0  0  0  0  0  0
    8.7891   10.4665   25.1345 C    0  0  0  0  0  0  0  0  0  0  0  0
    8.6814   11.4632   24.1417 C    0  0  0  0  0  0  0  0  0  0  0  0
    8.8502   15.6300   24.0743 H    0  0  0  0  0  0  0  0  0  0  0  0
    9.2485   14.0747   24.7139 H    0  0  0  0  0  0  0  0  0  0  0  0
   11.2845   15.4020   24.2251 H    0  0  0  0  0  0  0  0  0  0  0  0
   11.2690   13.8817   23.3467 H    0  0  0  0  0  0  0  0  0  0  0  0
   10.6227   16.6736   22.2258 H    0  0  0  0  0  0  0  0  0  0  0  0
   11.9946   15.6482   21.8097 H    0  0  0  0  0  0  0  0  0  0  0  0
    8.1343   15.7909   21.4963 H    0  0  0  0  0  0  0  0  0  0  0  0
    8.0763   14.2863   20.6016 H    0  0  0  0  0  0  0  0  0  0  0  0
   10.4728   13.9260   20.8763 H    0  0  0  0  0  0  0  0  0  0  0  0
   11.1394   15.3266   17.8180 H    0  0  0  0  0  0  0  0  0  0  0  0
   11.7014   14.2789   19.0817 H    0  0  0  0  0  0  0  0  0  0  0  0
    4.7646   13.4921   24.8815 H    0  0  0  0  0  0  0  0  0  0  0  0
    5.5107   10.4861   27.6438 H    0  0  0  0  0  0  0  0  0  0  0  0
    9.6864    9.8549   25.1557 H    0  0  0  0  0  0  0  0  0  0  0  0
    9.4931   11.5867   23.4281 H    0  0  0  0  0  0  0  0  0  0  0  0
  3  2  1  0  0  0  0
  4  3  1  0  0  0  0
 21  4  1  0  0  0  0
  1  2  2  0  0  0  0
 22  4  1  0  0  0  0
  5  4  1  0  0  0  0
 23  5  1  0  0  0  0
 24  5  1  0  0  0  0
  6  5  1  0  0  0  0
 25  6  1  0  0  0  0
 26  6  1  0  0  0  0
  7  3  1  0  0  0  0
 27  7  1  0  0  0  0
 28  7  1  0  0  0  0
  8  6  1  0  0  0  0
  9  8  1  0  0  0  0
 29  8  1  0  0  0  0
 10  9  2  0  0  0  0
 11  9  1  0  0  0  0
 30 11  1  0  0  0  0
 31 11  1  0  0  0  0
 12  2  1  0  0  0  0
 20 12  1  0  0  0  0
 13 12  2  0  0  0  0
 14 13  1  0  0  0  0
 32 14  1  0  0  0  0
 15 14  2  0  0  0  0
 16 15  1  0  0  0  0
 33 16  1  0  0  0  0
 17 16  1  0  0  0  0
 18 17  2  0  0  0  0
 19 18  1  0  0  0  0
 34 19  1  0  0  0  0
 35 20  1  0  0  0  0
  8  7  1  0  0  0  0
 17 13  1  0  0  0  0
 20 19  2  0  0  0  0
M  END
>  <FittedScore>
-30.26

$$$$
