A71EV2A-x3223a_lowest-energy
  FITTED

 35 37     0  0  0  0  0  0  0999 V2000
    6.1294   13.5483   22.2408 O    0  0  0  0  0  0  0  0  0  0  0  0
    7.1367   13.3019   22.8854 C    0  0  0  0  0  0  0  0  0  0  0  0
    8.3067   13.9977   22.6733 N    0  0  0  0  0  0  0  0  0  0  0  0
    9.1282   14.6038   23.7868 C    0  0  0  0  0  0  0  0  0  0  0  0
   10.6372   14.7731   23.4664 C    0  0  0  0  0  0  0  0  0  0  0  0
   10.8515   15.5570   22.1469 C    0  0  0  0  0  0  0  0  0  0  0  0
    8.5403   14.7110   21.3813 C    0  0  0  0  0  0  0  0  0  0  0  0
   10.0416   14.8942   21.0017 C    0  0  0  0  0  0  0  0  0  0  0  0
   10.2170   15.6365   19.6788 C    0  0  0  0  0  0  0  0  0  0  0  0
    9.5526   16.5907   19.3348 O    0  0  0  0  0  0  0  0  0  0  0  0
   11.0027   15.0358   18.7799 N    0  0  0  0  0  0  0  0  0  0  0  0
    7.0755   12.3773   24.0812 C    0  0  0  0  0  0  0  0  0  0  0  0
    8.1102   11.4792   24.4051 C    0  0  0  0  0  0  0  0  0  0  0  0
    9.3644   11.1033   23.7284 C    0  0  0  0  0  0  0  0  0  0  0  0
    9.8934   10.1190   24.3846 N    0  0  0  0  0  0  0  0  0  0  0  0
    9.0911    9.8264   25.4457 N    0  0  0  0  0  0  0  0  0  0  0  0
    7.9862   10.6141   25.4671 C    0  0  0  0  0  0  0  0  0  0  0  0
    6.9180   10.5753   26.3062 N    0  0  0  0  0  0  0  0  0  0  0  0
    5.9033   11.4495   26.0261 C    0  0  0  0  0  0  0  0  0  0  0  0
    5.9368   12.3331   24.9205 C    0  0  0  0  0  0  0  0  0  0  0  0
    8.7029   15.5855   24.0300 H    0  0  0  0  0  0  0  0  0  0  0  0
    9.0670   14.0359   24.7153 H    0  0  0  0  0  0  0  0  0  0  0  0
   11.1328   15.2974   24.2896 H    0  0  0  0  0  0  0  0  0  0  0  0
   11.1093   13.7895   23.3925 H    0  0  0  0  0  0  0  0  0  0  0  0
   10.5495   16.6010   22.2775 H    0  0  0  0  0  0  0  0  0  0  0  0
   11.9153   15.5626   21.8919 H    0  0  0  0  0  0  0  0  0  0  0  0
    8.0387   15.6839   21.4245 H    0  0  0  0  0  0  0  0  0  0  0  0
    8.0641   14.1578   20.5637 H    0  0  0  0  0  0  0  0  0  0  0  0
   10.4340   13.8747   20.8933 H    0  0  0  0  0  0  0  0  0  0  0  0
   11.0196   15.4051   17.8406 H    0  0  0  0  0  0  0  0  0  0  0  0
   11.3263   14.0889   18.9443 H    0  0  0  0  0  0  0  0  0  0  0  0
    9.8005   11.5328   22.8308 H    0  0  0  0  0  0  0  0  0  0  0  0
    9.2349    9.0191   26.0489 H    0  0  0  0  0  0  0  0  0  0  0  0
    5.0229   11.4530   26.6660 H    0  0  0  0  0  0  0  0  0  0  0  0
    5.0891   12.9861   24.7348 H    0  0  0  0  0  0  0  0  0  0  0  0
  3  2  1  0  0  0  0
  4  3  1  0  0  0  0
 21  4  1  0  0  0  0
  1  2  2  0  0  0  0
 22  4  1  0  0  0  0
  5  4  1  0  0  0  0
 23  5  1  0  0  0  0
 24  5  1  0  0  0  0
  6  5  1  0  0  0  0
 25  6  1  0  0  0  0
 26  6  1  0  0  0  0
  7  3  1  0  0  0  0
 27  7  1  0  0  0  0
 28  7  1  0  0  0  0
  8  6  1  0  0  0  0
  9  8  1  0  0  0  0
 29  8  1  0  0  0  0
 10  9  2  0  0  0  0
 11  9  1  0  0  0  0
 30 11  1  0  0  0  0
 31 11  1  0  0  0  0
 12  2  1  0  0  0  0
 20 12  1  0  0  0  0
 13 12  2  0  0  0  0
 14 13  1  0  0  0  0
 32 14  1  0  0  0  0
 15 14  2  0  0  0  0
 16 15  1  0  0  0  0
 33 16  1  0  0  0  0
 17 16  1  0  0  0  0
 18 17  2  0  0  0  0
 19 18  1  0  0  0  0
 34 19  1  0  0  0  0
 35 20  1  0  0  0  0
  8  7  1  0  0  0  0
 17 13  1  0  0  0  0
 20 19  2  0  0  0  0
M  END
>  <FittedScore>
-31.28

$$$$
