A71EV2A-x5276a_best-RMSD
  FITTED

 47 49     0  0  0  0  0  0  0999 V2000
   10.1540   16.6985   19.1198 O    0  0  0  0  0  0  0  0  0  0  0  0
   10.5603   15.6328   19.5296 C    0  0  0  0  0  0  0  0  0  0  0  0
   10.9676   14.7009   18.6452 N    0  0  0  0  0  0  0  0  0  0  0  0
   10.5726   15.2427   21.0166 C    0  0  0  0  0  0  0  0  0  0  0  0
   11.5373   16.1621   21.8209 C    0  0  0  0  0  0  0  0  0  0  0  0
   11.5029   15.8323   23.3380 C    0  0  0  0  0  0  0  0  0  0  0  0
   10.0504   15.8019   23.8811 C    0  0  0  0  0  0  0  0  0  0  0  0
    9.1422   15.2134   21.6549 C    0  0  0  0  0  0  0  0  0  0  0  0
    9.1404   14.8744   23.1214 N    0  0  0  0  0  0  0  0  0  0  0  0
    8.2890   13.9419   23.6798 C    0  0  0  0  0  0  0  0  0  0  0  0
    7.3683   13.4623   23.0325 O    0  0  0  0  0  0  0  0  0  0  0  0
    8.5533   13.4518   25.1201 C    0  0  0  0  0  0  0  0  0  0  0  0
    7.8370   12.1466   25.5181 C    0  0  0  0  0  0  0  0  0  0  0  0
    8.1371   10.9017   24.9022 C    0  0  0  0  0  0  0  0  0  0  0  0
    9.4159   10.7900   23.6452 S    0  0  0  0  0  0  0  0  0  0  0  0
    9.9292    9.0496   23.5001 C    0  0  0  0  0  0  0  0  0  0  0  0
    6.8738   12.1905   26.5470 C    0  0  0  0  0  0  0  0  0  0  0  0
    6.1899   11.0291   26.9494 C    0  0  0  0  0  0  0  0  0  0  0  0
    6.4655    9.8109   26.3072 C    0  0  0  0  0  0  0  0  0  0  0  0
    7.4176    9.7546   25.2884 C    0  0  0  0  0  0  0  0  0  0  0  0
    5.2159   11.1140   28.0878 C    0  0  0  0  0  0  0  0  0  0  0  0
    3.9361   11.8357   27.7520 C    0  0  0  0  0  0  0  0  0  0  0  0
    3.9172   10.3548   27.9693 C    0  0  0  0  0  0  0  0  0  0  0  0
   10.9262   14.9025   17.6510 H    0  0  0  0  0  0  0  0  0  0  0  0
   11.1806   13.7540   18.9573 H    0  0  0  0  0  0  0  0  0  0  0  0
   10.9623   14.2242   21.1081 H    0  0  0  0  0  0  0  0  0  0  0  0
   12.5570   16.0378   21.4447 H    0  0  0  0  0  0  0  0  0  0  0  0
   11.2689   17.2131   21.6751 H    0  0  0  0  0  0  0  0  0  0  0  0
   11.9799   14.8655   23.5196 H    0  0  0  0  0  0  0  0  0  0  0  0
   12.0808   16.5800   23.8879 H    0  0  0  0  0  0  0  0  0  0  0  0
   10.1052   15.5873   24.9486 H    0  0  0  0  0  0  0  0  0  0  0  0
    9.6313   16.8126   23.8350 H    0  0  0  0  0  0  0  0  0  0  0  0
    8.5480   14.5059   21.0707 H    0  0  0  0  0  0  0  0  0  0  0  0
    8.6499   16.1834   21.5290 H    0  0  0  0  0  0  0  0  0  0  0  0
    9.6220   13.2805   25.2786 H    0  0  0  0  0  0  0  0  0  0  0  0
    8.2829   14.2556   25.8123 H    0  0  0  0  0  0  0  0  0  0  0  0
    9.1343    8.4569   23.0436 H    0  0  0  0  0  0  0  0  0  0  0  0
   10.1825    8.6469   24.4828 H    0  0  0  0  0  0  0  0  0  0  0  0
   10.8110    8.9998   22.8579 H    0  0  0  0  0  0  0  0  0  0  0  0
    6.6618   13.1313   27.0543 H    0  0  0  0  0  0  0  0  0  0  0  0
    5.9540    8.8963   26.5984 H    0  0  0  0  0  0  0  0  0  0  0  0
    7.5896    8.7949   24.8177 H    0  0  0  0  0  0  0  0  0  0  0  0
    5.5795   11.2525   29.1026 H    0  0  0  0  0  0  0  0  0  0  0  0
    3.4927   12.4648   28.5177 H    0  0  0  0  0  0  0  0  0  0  0  0
    3.7765   12.1877   26.7353 H    0  0  0  0  0  0  0  0  0  0  0  0
    3.4615    9.9868   28.8841 H    0  0  0  0  0  0  0  0  0  0  0  0
    3.7346    9.7287   27.0989 H    0  0  0  0  0  0  0  0  0  0  0  0
  9 10  1  0  0  0  0
  7  9  1  0  0  0  0
  6  7  1  0  0  0  0
  5  6  1  0  0  0  0
  4  5  1  0  0  0  0
  2  4  1  0  0  0  0
  1  2  2  0  0  0  0
  3  2  1  0  0  0  0
 24  3  1  0  0  0  0
 25  3  1  0  0  0  0
 26  4  1  0  0  0  0
 27  5  1  0  0  0  0
 28  5  1  0  0  0  0
 29  6  1  0  0  0  0
 30  6  1  0  0  0  0
 31  7  1  0  0  0  0
 32  7  1  0  0  0  0
  8  4  1  0  0  0  0
 33  8  1  0  0  0  0
 34  8  1  0  0  0  0
 11 10  2  0  0  0  0
 12 10  1  0  0  0  0
 35 12  1  0  0  0  0
 36 12  1  0  0  0  0
 13 12  1  0  0  0  0
 14 13  1  0  0  0  0
 20 14  2  0  0  0  0
 15 14  1  0  0  0  0
 16 15  1  0  0  0  0
 37 16  1  0  0  0  0
 38 16  1  0  0  0  0
 39 16  1  0  0  0  0
 17 13  2  0  0  0  0
 40 17  1  0  0  0  0
 18 17  1  0  0  0  0
 19 18  2  0  0  0  0
 41 19  1  0  0  0  0
 42 20  1  0  0  0  0
 21 18  1  0  0  0  0
 23 21  1  0  0  0  0
 43 21  1  0  0  0  0
 22 21  1  0  0  0  0
 44 22  1  0  0  0  0
 45 22  1  0  0  0  0
 46 23  1  0  0  0  0
 47 23  1  0  0  0  0
  9  8  1  0  0  0  0
 20 19  1  0  0  0  0
 23 22  1  0  0  0  0
M  END
>  <FittedScore>
-30.49

$$$$
