A71EV2A-x5276a_lowest-energy
  FITTED

 47 49     0  0  0  0  0  0  0999 V2000
   10.2326   16.7206   19.1168 O    0  0  0  0  0  0  0  0  0  0  0  0
   10.6883   15.6642   19.5113 C    0  0  0  0  0  0  0  0  0  0  0  0
   11.0409   14.7227   18.6198 N    0  0  0  0  0  0  0  0  0  0  0  0
   10.6485   15.2257   20.9817 C    0  0  0  0  0  0  0  0  0  0  0  0
   11.4847   16.1806   21.8864 C    0  0  0  0  0  0  0  0  0  0  0  0
   11.3374   15.7999   23.3824 C    0  0  0  0  0  0  0  0  0  0  0  0
    9.8440   15.6853   23.7918 C    0  0  0  0  0  0  0  0  0  0  0  0
    9.1752   15.0691   21.4953 C    0  0  0  0  0  0  0  0  0  0  0  0
    9.0531   14.7155   22.9525 N    0  0  0  0  0  0  0  0  0  0  0  0
    8.1721   13.7614   23.4354 C    0  0  0  0  0  0  0  0  0  0  0  0
    7.3232   13.2529   22.7155 O    0  0  0  0  0  0  0  0  0  0  0  0
    8.2939   13.3089   24.9090 C    0  0  0  0  0  0  0  0  0  0  0  0
    7.6427   11.9556   25.2613 C    0  0  0  0  0  0  0  0  0  0  0  0
    8.0846   10.7272   24.7042 C    0  0  0  0  0  0  0  0  0  0  0  0
    9.5091   10.6936   23.6210 S    0  0  0  0  0  0  0  0  0  0  0  0
    9.9991    8.9620   23.3801 C    0  0  0  0  0  0  0  0  0  0  0  0
    6.5936   11.9371   26.2022 C    0  0  0  0  0  0  0  0  0  0  0  0
    5.9748   10.7325   26.5768 C    0  0  0  0  0  0  0  0  0  0  0  0
    6.3500    9.5427   25.9424 C    0  0  0  0  0  0  0  0  0  0  0  0
    7.3919    9.5415   25.0173 C    0  0  0  0  0  0  0  0  0  0  0  0
    4.9026   10.7162   27.6245 C    0  0  0  0  0  0  0  0  0  0  0  0
    5.1229    9.7745   28.7847 C    0  0  0  0  0  0  0  0  0  0  0  0
    5.3069   11.2484   28.9766 C    0  0  0  0  0  0  0  0  0  0  0  0
   11.1988   13.7594   18.9177 H    0  0  0  0  0  0  0  0  0  0  0  0
   11.0120   14.9493   17.6290 H    0  0  0  0  0  0  0  0  0  0  0  0
   11.1131   14.2353   21.0719 H    0  0  0  0  0  0  0  0  0  0  0  0
   12.5388   16.1212   21.6029 H    0  0  0  0  0  0  0  0  0  0  0  0
   11.1745   17.2204   21.7451 H    0  0  0  0  0  0  0  0  0  0  0  0
   11.8477   14.8513   23.5775 H    0  0  0  0  0  0  0  0  0  0  0  0
   11.8275   16.5556   24.0014 H    0  0  0  0  0  0  0  0  0  0  0  0
    9.8203   15.4621   24.8578 H    0  0  0  0  0  0  0  0  0  0  0  0
    9.3756   16.6721   23.7103 H    0  0  0  0  0  0  0  0  0  0  0  0
    8.6975   14.3164   20.8627 H    0  0  0  0  0  0  0  0  0  0  0  0
    8.6158   15.9937   21.3198 H    0  0  0  0  0  0  0  0  0  0  0  0
    9.3453   13.2262   25.1998 H    0  0  0  0  0  0  0  0  0  0  0  0
    7.8751   14.1016   25.5359 H    0  0  0  0  0  0  0  0  0  0  0  0
    9.2518    8.4452   22.7746 H    0  0  0  0  0  0  0  0  0  0  0  0
   10.1219    8.4628   24.3451 H    0  0  0  0  0  0  0  0  0  0  0  0
   10.9489    8.9364   22.8466 H    0  0  0  0  0  0  0  0  0  0  0  0
    6.2623   12.8658   26.6608 H    0  0  0  0  0  0  0  0  0  0  0  0
    5.8455    8.6070   26.1747 H    0  0  0  0  0  0  0  0  0  0  0  0
    7.6429    8.5908   24.5611 H    0  0  0  0  0  0  0  0  0  0  0  0
    3.8652   10.8804   27.3463 H    0  0  0  0  0  0  0  0  0  0  0  0
    4.2473    9.3132   29.2339 H    0  0  0  0  0  0  0  0  0  0  0  0
    6.0155    9.1517   28.8124 H    0  0  0  0  0  0  0  0  0  0  0  0
    4.5563   11.7874   29.5463 H    0  0  0  0  0  0  0  0  0  0  0  0
    6.3227   11.6025   29.1337 H    0  0  0  0  0  0  0  0  0  0  0  0
  9 10  1  0  0  0  0
  7  9  1  0  0  0  0
  6  7  1  0  0  0  0
  5  6  1  0  0  0  0
  4  5  1  0  0  0  0
  2  4  1  0  0  0  0
  1  2  2  0  0  0  0
  3  2  1  0  0  0  0
 24  3  1  0  0  0  0
 25  3  1  0  0  0  0
 26  4  1  0  0  0  0
 27  5  1  0  0  0  0
 28  5  1  0  0  0  0
 29  6  1  0  0  0  0
 30  6  1  0  0  0  0
 31  7  1  0  0  0  0
 32  7  1  0  0  0  0
  8  4  1  0  0  0  0
 33  8  1  0  0  0  0
 34  8  1  0  0  0  0
 11 10  2  0  0  0  0
 12 10  1  0  0  0  0
 35 12  1  0  0  0  0
 36 12  1  0  0  0  0
 13 12  1  0  0  0  0
 14 13  1  0  0  0  0
 20 14  2  0  0  0  0
 15 14  1  0  0  0  0
 16 15  1  0  0  0  0
 37 16  1  0  0  0  0
 38 16  1  0  0  0  0
 39 16  1  0  0  0  0
 17 13  2  0  0  0  0
 40 17  1  0  0  0  0
 18 17  1  0  0  0  0
 19 18  2  0  0  0  0
 41 19  1  0  0  0  0
 42 20  1  0  0  0  0
 21 18  1  0  0  0  0
 23 21  1  0  0  0  0
 43 21  1  0  0  0  0
 22 21  1  0  0  0  0
 44 22  1  0  0  0  0
 45 22  1  0  0  0  0
 46 23  1  0  0  0  0
 47 23  1  0  0  0  0
  9  8  1  0  0  0  0
 20 19  1  0  0  0  0
 23 22  1  0  0  0  0
M  END
>  <FittedScore>
-30.59

$$$$
