A71EV2A-x3938a_lowest-energy
  FITTED

 40 41     0  0  0  0  0  0  0999 V2000
    9.5053   16.0885   19.2591 O    0  0  0  0  0  0  0  0  0  0  0  0
   10.2943   15.2592   19.6475 C    0  0  0  0  0  0  0  0  0  0  0  0
   11.0014   14.5395   18.7708 N    0  0  0  0  0  0  0  0  0  0  0  0
   10.4162   14.7864   21.0824 C    0  0  0  0  0  0  0  0  0  0  0  0
   11.5155   15.5737   21.8407 C    0  0  0  0  0  0  0  0  0  0  0  0
   11.6736   14.9771   23.2521 C    0  0  0  0  0  0  0  0  0  0  0  0
   10.3080   14.9308   23.9644 C    0  0  0  0  0  0  0  0  0  0  0  0
    9.0598   14.7861   21.8414 C    0  0  0  0  0  0  0  0  0  0  0  0
    9.1704   14.2458   23.2299 N    0  0  0  0  0  0  0  0  0  0  0  0
    8.2547   13.3327   23.7317 C    0  0  0  0  0  0  0  0  0  0  0  0
    7.3026   12.9726   23.0541 O    0  0  0  0  0  0  0  0  0  0  0  0
    8.4245   12.7259   25.1518 C    0  0  0  0  0  0  0  0  0  0  0  0
    7.8597   13.7196   26.2120 C    0  0  0  0  0  0  0  0  0  0  0  0
    9.8245   12.4680   25.4612 O    0  0  0  0  0  0  0  0  0  0  0  0
   10.6137   11.6125   24.5943 C    0  0  0  0  0  0  0  0  0  0  0  0
    9.9700   10.2251   24.4580 C    0  0  0  0  0  0  0  0  0  0  0  0
    8.4287   10.1947   24.5183 C    0  0  0  0  0  0  0  0  0  0  0  0
    7.7524   11.3186   25.3522 C    0  0  0  0  0  0  0  0  0  0  0  0
   11.4005   13.6489   19.0514 H    0  0  0  0  0  0  0  0  0  0  0  0
   10.9325   14.7685   17.7884 H    0  0  0  0  0  0  0  0  0  0  0  0
   10.7331   13.7342   21.0718 H    0  0  0  0  0  0  0  0  0  0  0  0
   12.4711   15.5126   21.3146 H    0  0  0  0  0  0  0  0  0  0  0  0
   11.2572   16.6372   21.9045 H    0  0  0  0  0  0  0  0  0  0  0  0
   12.1083   13.9769   23.1986 H    0  0  0  0  0  0  0  0  0  0  0  0
   12.3670   15.5942   23.8312 H    0  0  0  0  0  0  0  0  0  0  0  0
   10.4664   14.6839   25.0064 H    0  0  0  0  0  0  0  0  0  0  0  0
    9.9900   15.9669   24.0770 H    0  0  0  0  0  0  0  0  0  0  0  0
    8.3607   14.2063   21.2354 H    0  0  0  0  0  0  0  0  0  0  0  0
    8.6353   15.7941   21.8942 H    0  0  0  0  0  0  0  0  0  0  0  0
    8.2971   14.7153   26.1268 H    0  0  0  0  0  0  0  0  0  0  0  0
    8.0714   13.3735   27.2264 H    0  0  0  0  0  0  0  0  0  0  0  0
    6.7764   13.8266   26.1096 H    0  0  0  0  0  0  0  0  0  0  0  0
   10.7434   12.0451   23.6011 H    0  0  0  0  0  0  0  0  0  0  0  0
   11.6112   11.5266   25.0323 H    0  0  0  0  0  0  0  0  0  0  0  0
   10.3207    9.7492   23.5377 H    0  0  0  0  0  0  0  0  0  0  0  0
   10.3407    9.6069   25.2796 H    0  0  0  0  0  0  0  0  0  0  0  0
    8.0490   10.2466   23.4952 H    0  0  0  0  0  0  0  0  0  0  0  0
    8.0978    9.2237   24.8923 H    0  0  0  0  0  0  0  0  0  0  0  0
    6.6868   11.3612   25.1063 H    0  0  0  0  0  0  0  0  0  0  0  0
    7.8006   11.0222   26.4036 H    0  0  0  0  0  0  0  0  0  0  0  0
  7  9  1  0  0  0  0
  6  7  1  0  0  0  0
  5  6  1  0  0  0  0
  4  5  1  0  0  0  0
  2  4  1  0  0  0  0
  1  2  2  0  0  0  0
  3  2  1  0  0  0  0
 19  3  1  0  0  0  0
 20  3  1  0  0  0  0
 21  4  1  0  0  0  0
 22  5  1  0  0  0  0
 23  5  1  0  0  0  0
 24  6  1  0  0  0  0
 25  6  1  0  0  0  0
 26  7  1  0  0  0  0
 27  7  1  0  0  0  0
  8  4  1  0  0  0  0
 28  8  1  0  0  0  0
 29  8  1  0  0  0  0
 10  9  1  0  0  0  0
 11 10  2  0  0  0  0
 12 10  1  0  0  0  0
 13 12  1  0  0  0  0
 18 12  1  0  0  0  0
 30 13  1  0  0  0  0
 31 13  1  0  0  0  0
 32 13  1  0  0  0  0
 14 12  1  0  0  0  0
 15 14  1  0  0  0  0
 33 15  1  0  0  0  0
 34 15  1  0  0  0  0
 16 15  1  0  0  0  0
 35 16  1  0  0  0  0
 36 16  1  0  0  0  0
 17 16  1  0  0  0  0
 37 17  1  0  0  0  0
 38 17  1  0  0  0  0
 39 18  1  0  0  0  0
 40 18  1  0  0  0  0
  9  8  1  0  0  0  0
 18 17  1  0  0  0  0
M  END
>  <FittedScore>
-28.54

$$$$
