A71EV2A-x3938a_best-RMSD
  FITTED

 40 41     0  0  0  0  0  0  0999 V2000
    9.3025   15.9671   19.2086 O    0  0  0  0  0  0  0  0  0  0  0  0
   10.2370   15.3025   19.6057 C    0  0  0  0  0  0  0  0  0  0  0  0
   11.2078   14.9066   18.7832 N    0  0  0  0  0  0  0  0  0  0  0  0
   10.3824   14.7824   21.0151 C    0  0  0  0  0  0  0  0  0  0  0  0
   11.4965   15.5478   21.7674 C    0  0  0  0  0  0  0  0  0  0  0  0
   11.6370   14.9753   23.1860 C    0  0  0  0  0  0  0  0  0  0  0  0
   10.2652   14.9327   23.8814 C    0  0  0  0  0  0  0  0  0  0  0  0
    9.0242   14.7415   21.7749 C    0  0  0  0  0  0  0  0  0  0  0  0
    9.1571   14.2057   23.1598 N    0  0  0  0  0  0  0  0  0  0  0  0
    8.2510   13.3053   23.6955 C    0  0  0  0  0  0  0  0  0  0  0  0
    7.2654   12.9792   23.0564 O    0  0  0  0  0  0  0  0  0  0  0  0
    8.4291   12.7317   25.1359 C    0  0  0  0  0  0  0  0  0  0  0  0
    7.8429   13.7424   26.1685 C    0  0  0  0  0  0  0  0  0  0  0  0
    9.8273   12.4971   25.4767 O    0  0  0  0  0  0  0  0  0  0  0  0
   10.6418   11.6107   24.6675 C    0  0  0  0  0  0  0  0  0  0  0  0
    9.9941   10.2279   24.4957 C    0  0  0  0  0  0  0  0  0  0  0  0
    8.4558   10.2048   24.5210 C    0  0  0  0  0  0  0  0  0  0  0  0
    7.7772   11.3191   25.3583 C    0  0  0  0  0  0  0  0  0  0  0  0
   11.0906   15.0210   17.7858 H    0  0  0  0  0  0  0  0  0  0  0  0
   11.9938   14.3895   19.1680 H    0  0  0  0  0  0  0  0  0  0  0  0
   10.7080   13.7300   20.9729 H    0  0  0  0  0  0  0  0  0  0  0  0
   12.4489   15.4436   21.2392 H    0  0  0  0  0  0  0  0  0  0  0  0
   11.2685   16.6177   21.8068 H    0  0  0  0  0  0  0  0  0  0  0  0
   12.0962   13.9855   23.1490 H    0  0  0  0  0  0  0  0  0  0  0  0
   12.3127   15.6102   23.7619 H    0  0  0  0  0  0  0  0  0  0  0  0
   10.4147   14.7045   24.9268 H    0  0  0  0  0  0  0  0  0  0  0  0
    9.9270   15.9716   23.9679 H    0  0  0  0  0  0  0  0  0  0  0  0
    8.3499   14.1320   21.1659 H    0  0  0  0  0  0  0  0  0  0  0  0
    8.5714   15.7376   21.8140 H    0  0  0  0  0  0  0  0  0  0  0  0
    8.3071   14.7254   26.0634 H    0  0  0  0  0  0  0  0  0  0  0  0
    8.0110   13.4005   27.1922 H    0  0  0  0  0  0  0  0  0  0  0  0
    6.7668   13.8818   26.0577 H    0  0  0  0  0  0  0  0  0  0  0  0
   10.8270   12.0281   23.6801 H    0  0  0  0  0  0  0  0  0  0  0  0
   11.6106   11.5142   25.1634 H    0  0  0  0  0  0  0  0  0  0  0  0
   10.3475    9.7811   23.5631 H    0  0  0  0  0  0  0  0  0  0  0  0
   10.3595    9.5775   25.2944 H    0  0  0  0  0  0  0  0  0  0  0  0
    8.1055   10.2820   23.4879 H    0  0  0  0  0  0  0  0  0  0  0  0
    8.1129    9.2324   24.8799 H    0  0  0  0  0  0  0  0  0  0  0  0
    6.7099   11.3367   25.1151 H    0  0  0  0  0  0  0  0  0  0  0  0
    7.8492   11.0397   26.4152 H    0  0  0  0  0  0  0  0  0  0  0  0
  7  9  1  0  0  0  0
  6  7  1  0  0  0  0
  5  6  1  0  0  0  0
  4  5  1  0  0  0  0
  2  4  1  0  0  0  0
  1  2  2  0  0  0  0
  3  2  1  0  0  0  0
 19  3  1  0  0  0  0
 20  3  1  0  0  0  0
 21  4  1  0  0  0  0
 22  5  1  0  0  0  0
 23  5  1  0  0  0  0
 24  6  1  0  0  0  0
 25  6  1  0  0  0  0
 26  7  1  0  0  0  0
 27  7  1  0  0  0  0
  8  4  1  0  0  0  0
 28  8  1  0  0  0  0
 29  8  1  0  0  0  0
 10  9  1  0  0  0  0
 11 10  2  0  0  0  0
 12 10  1  0  0  0  0
 13 12  1  0  0  0  0
 18 12  1  0  0  0  0
 30 13  1  0  0  0  0
 31 13  1  0  0  0  0
 32 13  1  0  0  0  0
 14 12  1  0  0  0  0
 15 14  1  0  0  0  0
 33 15  1  0  0  0  0
 34 15  1  0  0  0  0
 16 15  1  0  0  0  0
 35 16  1  0  0  0  0
 36 16  1  0  0  0  0
 17 16  1  0  0  0  0
 37 17  1  0  0  0  0
 38 17  1  0  0  0  0
 39 18  1  0  0  0  0
 40 18  1  0  0  0  0
  9  8  1  0  0  0  0
 18 17  1  0  0  0  0
M  END
>  <FittedScore>
-27.32

$$$$
