A71EV2A-x4310a_lowest-energy
  FITTED

 42 43     0  0  0  0  0  0  0999 V2000
    3.7488   11.0390   27.3357 F    0  0  0  0  0  0  0  0  0  0  0  0
    4.9588   10.6524   27.7770 C    0  0  0  0  0  0  0  0  0  0  0  0
    5.2640   11.4101   28.8406 F    0  0  0  0  0  0  0  0  0  0  0  0
    4.8081    9.4156   28.2828 F    0  0  0  0  0  0  0  0  0  0  0  0
    6.0115   10.7494   26.6610 C    0  0  0  0  0  0  0  0  0  0  0  0
    6.5603   11.9908   26.2444 C    0  0  0  0  0  0  0  0  0  0  0  0
    6.0935   13.1887   26.7588 O    0  0  0  0  0  0  0  0  0  0  0  0
    5.0356   13.9336   26.0987 C    0  0  0  0  0  0  0  0  0  0  0  0
    6.4278    9.5798   25.9907 C    0  0  0  0  0  0  0  0  0  0  0  0
    7.4119    9.6128   25.0003 C    0  0  0  0  0  0  0  0  0  0  0  0
    8.0025   10.8237   24.6554 C    0  0  0  0  0  0  0  0  0  0  0  0
    7.5686   12.0167   25.2591 C    0  0  0  0  0  0  0  0  0  0  0  0
    8.1205   13.2584   24.8047 N    0  0  0  0  0  0  0  0  0  0  0  0
    8.0688   13.7051   23.5164 C    0  0  0  0  0  0  0  0  0  0  0  0
    7.3705   13.1119   22.7099 O    0  0  0  0  0  0  0  0  0  0  0  0
    8.7984   14.8254   23.1860 N    0  0  0  0  0  0  0  0  0  0  0  0
    8.8246   15.3896   21.7971 C    0  0  0  0  0  0  0  0  0  0  0  0
   10.2419   15.2684   21.1506 C    0  0  0  0  0  0  0  0  0  0  0  0
   10.2751   15.7621   19.7035 C    0  0  0  0  0  0  0  0  0  0  0  0
    9.9103   16.8694   19.3448 O    0  0  0  0  0  0  0  0  0  0  0  0
   10.6162   14.8273   18.7918 N    0  0  0  0  0  0  0  0  0  0  0  0
   11.3142   15.9740   22.0319 C    0  0  0  0  0  0  0  0  0  0  0  0
   11.2241   15.5023   23.5135 C    0  0  0  0  0  0  0  0  0  0  0  0
    9.7691   15.5626   24.0621 C    0  0  0  0  0  0  0  0  0  0  0  0
    5.3345   14.2169   25.0863 H    0  0  0  0  0  0  0  0  0  0  0  0
    4.8318   14.8414   26.6699 H    0  0  0  0  0  0  0  0  0  0  0  0
    4.1134   13.3479   26.0567 H    0  0  0  0  0  0  0  0  0  0  0  0
    5.9929    8.6107   26.2404 H    0  0  0  0  0  0  0  0  0  0  0  0
    7.7209    8.6981   24.4936 H    0  0  0  0  0  0  0  0  0  0  0  0
    8.7800   10.8377   23.8922 H    0  0  0  0  0  0  0  0  0  0  0  0
    8.4355   13.8700   25.5618 H    0  0  0  0  0  0  0  0  0  0  0  0
    8.1014   14.9057   21.1360 H    0  0  0  0  0  0  0  0  0  0  0  0
    8.5109   16.4383   21.8327 H    0  0  0  0  0  0  0  0  0  0  0  0
   10.4923   14.2008   21.1631 H    0  0  0  0  0  0  0  0  0  0  0  0
   10.6048   15.0509   17.8041 H    0  0  0  0  0  0  0  0  0  0  0  0
   10.7486   13.8637   19.0850 H    0  0  0  0  0  0  0  0  0  0  0  0
   12.3116   15.7468   21.6480 H    0  0  0  0  0  0  0  0  0  0  0  0
   11.1924   17.0617   21.9821 H    0  0  0  0  0  0  0  0  0  0  0  0
   11.5856   14.4728   23.5968 H    0  0  0  0  0  0  0  0  0  0  0  0
   11.8792   16.1223   24.1336 H    0  0  0  0  0  0  0  0  0  0  0  0
    9.7815   15.1972   25.0925 H    0  0  0  0  0  0  0  0  0  0  0  0
    9.4492   16.6076   24.1401 H    0  0  0  0  0  0  0  0  0  0  0  0
 13 14  1  0  0  0  0
 12 13  1  0  0  0  0
  6 12  2  0  0  0  0
  5  6  1  0  0  0  0
  2  5  1  0  0  0  0
  1  2  1  0  0  0  0
  3  2  1  0  0  0  0
  4  2  1  0  0  0  0
  7  6  1  0  0  0  0
  8  7  1  0  0  0  0
 25  8  1  0  0  0  0
 26  8  1  0  0  0  0
 27  8  1  0  0  0  0
  9  5  2  0  0  0  0
 28  9  1  0  0  0  0
 10  9  1  0  0  0  0
 29 10  1  0  0  0  0
 11 10  2  0  0  0  0
 30 11  1  0  0  0  0
 31 13  1  0  0  0  0
 15 14  2  0  0  0  0
 16 14  1  0  0  0  0
 24 16  1  0  0  0  0
 17 16  1  0  0  0  0
 32 17  1  0  0  0  0
 33 17  1  0  0  0  0
 18 17  1  0  0  0  0
 19 18  1  0  0  0  0
 34 18  1  0  0  0  0
 20 19  2  0  0  0  0
 21 19  1  0  0  0  0
 35 21  1  0  0  0  0
 36 21  1  0  0  0  0
 22 18  1  0  0  0  0
 37 22  1  0  0  0  0
 38 22  1  0  0  0  0
 23 22  1  0  0  0  0
 39 23  1  0  0  0  0
 40 23  1  0  0  0  0
 41 24  1  0  0  0  0
 42 24  1  0  0  0  0
 12 11  1  0  0  0  0
 24 23  1  0  0  0  0
M  END
>  <FittedScore>
-40.28

$$$$
