A71EV2A-x4418a_best-RMSD
  FITTED

 35 36     0  0  0  0  0  0  0999 V2000
    9.5581   16.2704   19.1710 O    0  0  0  0  0  0  0  0  0  0  0  0
   10.4573   15.5342   19.5173 C    0  0  0  0  0  0  0  0  0  0  0  0
   11.2918   15.0477   18.5811 N    0  0  0  0  0  0  0  0  0  0  0  0
   10.6508   15.0194   20.9436 C    0  0  0  0  0  0  0  0  0  0  0  0
   11.4524   15.9112   21.8925 C    0  0  0  0  0  0  0  0  0  0  0  0
   11.0553   15.3629   23.2748 C    0  0  0  0  0  0  0  0  0  0  0  0
    9.3552   14.7004   21.7306 C    0  0  0  0  0  0  0  0  0  0  0  0
    9.7338   14.6946   23.1650 N    0  0  0  0  0  0  0  0  0  0  0  0
    9.1235   14.0221   24.1994 C    0  0  0  0  0  0  0  0  0  0  0  0
    9.6917   13.7794   25.2488 O    0  0  0  0  0  0  0  0  0  0  0  0
    7.8907   13.5025   23.9528 N    0  0  0  0  0  0  0  0  0  0  0  0
    7.2802   12.4278   24.6829 C    0  0  0  0  0  0  0  0  0  0  0  0
    7.6529   11.0853   24.4511 C    0  0  0  0  0  0  0  0  0  0  0  0
    8.6587   10.8378   23.5156 O    0  0  0  0  0  0  0  0  0  0  0  0
    9.2713    9.5306   23.3381 C    0  0  0  0  0  0  0  0  0  0  0  0
    6.3169   12.7153   25.6649 C    0  0  0  0  0  0  0  0  0  0  0  0
    5.7284   11.6572   26.3729 C    0  0  0  0  0  0  0  0  0  0  0  0
    6.1045   10.3402   26.0703 C    0  0  0  0  0  0  0  0  0  0  0  0
    7.0429   10.0558   25.1272 N    0  0  0  0  0  0  0  0  0  0  0  0
   12.0426   14.4067   18.8130 H    0  0  0  0  0  0  0  0  0  0  0  0
   11.1117   15.2522   17.6033 H    0  0  0  0  0  0  0  0  0  0  0  0
   11.1969   14.0708   20.8750 H    0  0  0  0  0  0  0  0  0  0  0  0
   12.5296   15.8168   21.7253 H    0  0  0  0  0  0  0  0  0  0  0  0
   11.1707   16.9631   21.7993 H    0  0  0  0  0  0  0  0  0  0  0  0
   11.8046   14.6366   23.6158 H    0  0  0  0  0  0  0  0  0  0  0  0
   11.0114   16.1693   24.0121 H    0  0  0  0  0  0  0  0  0  0  0  0
    8.9659   13.7264   21.4147 H    0  0  0  0  0  0  0  0  0  0  0  0
    8.5765   15.4528   21.5655 H    0  0  0  0  0  0  0  0  0  0  0  0
    7.4350   13.7008   23.0691 H    0  0  0  0  0  0  0  0  0  0  0  0
    9.7525    9.2151   24.2688 H    0  0  0  0  0  0  0  0  0  0  0  0
   10.0320    9.6000   22.5596 H    0  0  0  0  0  0  0  0  0  0  0  0
    8.5302    8.7906   23.0316 H    0  0  0  0  0  0  0  0  0  0  0  0
    6.0327   13.7415   25.8853 H    0  0  0  0  0  0  0  0  0  0  0  0
    4.9865   11.8531   27.1380 H    0  0  0  0  0  0  0  0  0  0  0  0
    5.6261    9.5160   26.5944 H    0  0  0  0  0  0  0  0  0  0  0  0
  8  9  1  0  0  0  0
  6  8  1  0  0  0  0
  5  6  1  0  0  0  0
  4  5  1  0  0  0  0
  2  4  1  0  0  0  0
  1  2  2  0  0  0  0
  3  2  1  0  0  0  0
 20  3  1  0  0  0  0
 21  3  1  0  0  0  0
 22  4  1  0  0  0  0
 23  5  1  0  0  0  0
 24  5  1  0  0  0  0
 25  6  1  0  0  0  0
 26  6  1  0  0  0  0
  7  4  1  0  0  0  0
 27  7  1  0  0  0  0
 28  7  1  0  0  0  0
 10  9  2  0  0  0  0
 11  9  1  0  0  0  0
 29 11  1  0  0  0  0
 12 11  1  0  0  0  0
 13 12  1  0  0  0  0
 19 13  2  0  0  0  0
 14 13  1  0  0  0  0
 15 14  1  0  0  0  0
 30 15  1  0  0  0  0
 31 15  1  0  0  0  0
 32 15  1  0  0  0  0
 16 12  2  0  0  0  0
 33 16  1  0  0  0  0
 17 16  1  0  0  0  0
 34 17  1  0  0  0  0
 18 17  2  0  0  0  0
 35 18  1  0  0  0  0
  8  7  1  0  0  0  0
 19 18  1  0  0  0  0
M  END
>  <FittedScore>
-31.98

$$$$
