A71EV2A-x5090a_lowest-energy
  FITTED

 36 37     0  0  0  0  0  0  0999 V2000
    9.8198   16.6042   19.5509 O    0  0  0  0  0  0  0  0  0  0  0  0
   10.3104   15.5279   19.8495 C    0  0  0  0  0  0  0  0  0  0  0  0
   10.7101   14.6632   18.8979 N    0  0  0  0  0  0  0  0  0  0  0  0
   10.4082   15.0057   21.2831 C    0  0  0  0  0  0  0  0  0  0  0  0
   11.3810   15.8718   22.1339 C    0  0  0  0  0  0  0  0  0  0  0  0
   11.4566   15.3162   23.5781 C    0  0  0  0  0  0  0  0  0  0  0  0
   10.0500   15.2036   24.2294 C    0  0  0  0  0  0  0  0  0  0  0  0
    9.0028   14.8825   21.9459 C    0  0  0  0  0  0  0  0  0  0  0  0
    9.0885   14.4586   23.3666 N    0  0  0  0  0  0  0  0  0  0  0  0
    7.6031   13.9368   24.0577 S    0  0  0  0  0  0  0  0  0  0  0  0
    6.7645   13.2544   23.0946 O    0  0  0  0  0  0  0  0  0  0  0  0
    7.0577   14.9958   24.8577 O    0  0  0  0  0  0  0  0  0  0  0  0
    8.2261   12.8259   25.1740 N    0  0  0  0  0  0  0  0  0  0  0  0
    8.3823   11.5244   24.8157 C    0  0  0  0  0  0  0  0  0  0  0  0
    9.3055   11.0263   23.9370 C    0  0  0  0  0  0  0  0  0  0  0  0
    7.6267   10.4663   25.2676 C    0  0  0  0  0  0  0  0  0  0  0  0
    8.0821    9.2020   24.6593 N    0  0  0  0  0  0  0  0  0  0  0  0
    9.0926    9.6843   23.8753 N    0  0  0  0  0  0  0  0  0  0  0  0
    9.9124    8.7332   23.1326 C    0  0  0  0  0  0  0  0  0  0  0  0
   10.9679   13.7093   19.1431 H    0  0  0  0  0  0  0  0  0  0  0  0
   10.6259   14.9157   17.9214 H    0  0  0  0  0  0  0  0  0  0  0  0
   10.8260   13.9885   21.2708 H    0  0  0  0  0  0  0  0  0  0  0  0
   12.3780   15.8595   21.6880 H    0  0  0  0  0  0  0  0  0  0  0  0
   11.0495   16.9144   22.1533 H    0  0  0  0  0  0  0  0  0  0  0  0
   11.9384   14.3329   23.5760 H    0  0  0  0  0  0  0  0  0  0  0  0
   12.0855   15.9722   24.1851 H    0  0  0  0  0  0  0  0  0  0  0  0
   10.1831   14.7240   25.1992 H    0  0  0  0  0  0  0  0  0  0  0  0
    9.6785   16.2117   24.4363 H    0  0  0  0  0  0  0  0  0  0  0  0
    8.4338   14.1686   21.3419 H    0  0  0  0  0  0  0  0  0  0  0  0
    8.4684   15.8347   21.8711 H    0  0  0  0  0  0  0  0  0  0  0  0
    7.7139   12.9615   26.0345 H    0  0  0  0  0  0  0  0  0  0  0  0
   10.0621   11.5861   23.3905 H    0  0  0  0  0  0  0  0  0  0  0  0
    6.7895   10.5078   25.9594 H    0  0  0  0  0  0  0  0  0  0  0  0
   10.7176    9.2238   22.5702 H    0  0  0  0  0  0  0  0  0  0  0  0
    9.3222    8.1600   22.4107 H    0  0  0  0  0  0  0  0  0  0  0  0
   10.3893    8.0129   23.8015 H    0  0  0  0  0  0  0  0  0  0  0  0
  7  9  1  0  0  0  0
  6  7  1  0  0  0  0
  5  6  1  0  0  0  0
  4  5  1  0  0  0  0
  2  4  1  0  0  0  0
  1  2  2  0  0  0  0
  3  2  1  0  0  0  0
 20  3  1  0  0  0  0
 21  3  1  0  0  0  0
 22  4  1  0  0  0  0
 23  5  1  0  0  0  0
 24  5  1  0  0  0  0
 25  6  1  0  0  0  0
 26  6  1  0  0  0  0
 27  7  1  0  0  0  0
 28  7  1  0  0  0  0
  8  4  1  0  0  0  0
 29  8  1  0  0  0  0
 30  8  1  0  0  0  0
 10  9  1  0  0  0  0
 11 10  2  0  0  0  0
 12 10  2  0  0  0  0
 13 10  1  0  0  0  0
 31 13  1  0  0  0  0
 14 13  1  0  0  0  0
 15 14  2  0  0  0  0
 32 15  1  0  0  0  0
 16 14  1  0  0  0  0
 33 16  1  0  0  0  0
 17 16  2  0  0  0  0
 18 15  1  0  0  0  0
 19 18  1  0  0  0  0
 34 19  1  0  0  0  0
 35 19  1  0  0  0  0
 36 19  1  0  0  0  0
  9  8  1  0  0  0  0
 18 17  1  0  0  0  0
M  END
>  <FittedScore>
-34.39

$$$$
