A71EV2A-x4710a_best-RMSD
  FITTED

 37 38     0  0  0  0  0  0  0999 V2000
   11.4021   14.0522   25.0662 O    0  0  0  0  0  0  0  0  0  0  0  0
   11.2096   14.3627   23.9035 C    0  0  0  0  0  0  0  0  0  0  0  0
   12.3656   14.9792   23.1113 C    0  0  0  0  0  0  0  0  0  0  0  0
   12.1842   14.9866   21.5763 C    0  0  0  0  0  0  0  0  0  0  0  0
   10.7646   15.4927   21.2030 C    0  0  0  0  0  0  0  0  0  0  0  0
   10.5101   15.6217   19.7021 C    0  0  0  0  0  0  0  0  0  0  0  0
    9.7730   16.4743   19.2507 O    0  0  0  0  0  0  0  0  0  0  0  0
   10.9336   14.6226   18.9073 N    0  0  0  0  0  0  0  0  0  0  0  0
    9.6790   14.6275   21.8967 C    0  0  0  0  0  0  0  0  0  0  0  0
    9.9552   14.3086   23.3341 N    0  0  0  0  0  0  0  0  0  0  0  0
    8.7316   13.9194   24.1002 C    0  0  0  0  0  0  0  0  0  0  0  0
    8.5190   12.4190   24.3345 C    0  0  0  0  0  0  0  0  0  0  0  0
    9.2199   11.4020   23.6512 C    0  0  0  0  0  0  0  0  0  0  0  0
    8.9143   10.0538   23.8854 C    0  0  0  0  0  0  0  0  0  0  0  0
    7.9075    9.7086   24.7968 C    0  0  0  0  0  0  0  0  0  0  0  0
    7.5278   12.0520   25.2658 C    0  0  0  0  0  0  0  0  0  0  0  0
    7.2203   10.7022   25.5131 C    0  0  0  0  0  0  0  0  0  0  0  0
    6.0186   10.1918   26.7369 S    0  0  0  0  0  0  0  0  0  0  0  0
    4.8909   11.6126   26.9732 C    0  0  0  0  0  0  0  0  0  0  0  0
   12.5010   16.0065   23.4574 H    0  0  0  0  0  0  0  0  0  0  0  0
   13.2932   14.4462   23.3453 H    0  0  0  0  0  0  0  0  0  0  0  0
   12.9416   15.6299   21.1205 H    0  0  0  0  0  0  0  0  0  0  0  0
   12.3518   13.9721   21.2024 H    0  0  0  0  0  0  0  0  0  0  0  0
   10.6740   16.5052   21.6146 H    0  0  0  0  0  0  0  0  0  0  0  0
   11.2738   13.7539   19.3106 H    0  0  0  0  0  0  0  0  0  0  0  0
   10.8973   14.7234   17.9002 H    0  0  0  0  0  0  0  0  0  0  0  0
    8.7306   15.1618   21.7864 H    0  0  0  0  0  0  0  0  0  0  0  0
    9.5608   13.6831   21.3575 H    0  0  0  0  0  0  0  0  0  0  0  0
    8.7648   14.4379   25.0638 H    0  0  0  0  0  0  0  0  0  0  0  0
    7.8203   14.3022   23.6335 H    0  0  0  0  0  0  0  0  0  0  0  0
    9.9952   11.6391   22.9281 H    0  0  0  0  0  0  0  0  0  0  0  0
    9.4491    9.2731   23.3511 H    0  0  0  0  0  0  0  0  0  0  0  0
    7.6814    8.6591   24.9682 H    0  0  0  0  0  0  0  0  0  0  0  0
    7.0090   12.8420   25.7988 H    0  0  0  0  0  0  0  0  0  0  0  0
    4.0586   11.3142   27.6105 H    0  0  0  0  0  0  0  0  0  0  0  0
    4.4876   11.9417   26.0116 H    0  0  0  0  0  0  0  0  0  0  0  0
    5.4167   12.4413   27.4527 H    0  0  0  0  0  0  0  0  0  0  0  0
  9 10  1  0  0  0  0
  5  9  1  0  0  0  0
  6  5  1  0  0  0  0
  4  5  1  0  0  0  0
  3  4  1  0  0  0  0
  2  3  1  0  0  0  0
  1  2  2  0  0  0  0
 20  3  1  0  0  0  0
 21  3  1  0  0  0  0
 22  4  1  0  0  0  0
 23  4  1  0  0  0  0
 24  5  1  0  0  0  0
  7  6  2  0  0  0  0
  8  6  1  0  0  0  0
 25  8  1  0  0  0  0
 26  8  1  0  0  0  0
 27  9  1  0  0  0  0
 28  9  1  0  0  0  0
 11 10  1  0  0  0  0
 29 11  1  0  0  0  0
 30 11  1  0  0  0  0
 12 11  1  0  0  0  0
 13 12  1  0  0  0  0
 31 13  1  0  0  0  0
 14 13  2  0  0  0  0
 32 14  1  0  0  0  0
 15 14  1  0  0  0  0
 33 15  1  0  0  0  0
 16 12  2  0  0  0  0
 34 16  1  0  0  0  0
 17 15  2  0  0  0  0
 18 17  1  0  0  0  0
 19 18  1  0  0  0  0
 35 19  1  0  0  0  0
 36 19  1  0  0  0  0
 37 19  1  0  0  0  0
 10  2  1  0  0  0  0
 17 16  1  0  0  0  0
M  END
>  <FittedScore>
-35.99

$$$$
