A71EV2A-x4710a_lowest-energy
  FITTED

 37 38     0  0  0  0  0  0  0999 V2000
   11.4104   14.0425   25.0565 O    0  0  0  0  0  0  0  0  0  0  0  0
   11.1984   14.4181   23.9174 C    0  0  0  0  0  0  0  0  0  0  0  0
   12.3282   15.1024   23.1449 C    0  0  0  0  0  0  0  0  0  0  0  0
   12.1799   15.0528   21.6058 C    0  0  0  0  0  0  0  0  0  0  0  0
   10.7519   15.5080   21.2043 C    0  0  0  0  0  0  0  0  0  0  0  0
   10.5117   15.6257   19.6996 C    0  0  0  0  0  0  0  0  0  0  0  0
    9.7179   16.4251   19.2476 O    0  0  0  0  0  0  0  0  0  0  0  0
   10.9663   14.6424   18.8994 N    0  0  0  0  0  0  0  0  0  0  0  0
    9.6810   14.6256   21.8951 C    0  0  0  0  0  0  0  0  0  0  0  0
    9.9552   14.3283   23.3372 N    0  0  0  0  0  0  0  0  0  0  0  0
    8.7488   13.8673   24.0842 C    0  0  0  0  0  0  0  0  0  0  0  0
    8.5902   12.3488   24.2321 C    0  0  0  0  0  0  0  0  0  0  0  0
    9.4140   11.3957   23.5916 C    0  0  0  0  0  0  0  0  0  0  0  0
    9.1663   10.0268   23.7566 C    0  0  0  0  0  0  0  0  0  0  0  0
    8.0997    9.5967   24.5580 C    0  0  0  0  0  0  0  0  0  0  0  0
    7.5328   11.8996   25.0430 C    0  0  0  0  0  0  0  0  0  0  0  0
    7.2890   10.5296   25.2232 C    0  0  0  0  0  0  0  0  0  0  0  0
    5.9544    9.9521   26.2574 S    0  0  0  0  0  0  0  0  0  0  0  0
    5.9141   11.0744   27.6911 C    0  0  0  0  0  0  0  0  0  0  0  0
   12.3804   16.1465   23.4697 H    0  0  0  0  0  0  0  0  0  0  0  0
   13.2809   14.6425   23.4199 H    0  0  0  0  0  0  0  0  0  0  0  0
   12.9292   15.7024   21.1460 H    0  0  0  0  0  0  0  0  0  0  0  0
   12.3715   14.0317   21.2618 H    0  0  0  0  0  0  0  0  0  0  0  0
   10.6275   16.5179   21.6127 H    0  0  0  0  0  0  0  0  0  0  0  0
   11.3038   13.7702   19.2941 H    0  0  0  0  0  0  0  0  0  0  0  0
   10.7896   14.6837   17.8991 H    0  0  0  0  0  0  0  0  0  0  0  0
    8.7204   15.1328   21.7728 H    0  0  0  0  0  0  0  0  0  0  0  0
    9.5991   13.6762   21.3603 H    0  0  0  0  0  0  0  0  0  0  0  0
    8.7749   14.3190   25.0800 H    0  0  0  0  0  0  0  0  0  0  0  0
    7.8314   14.2642   23.6433 H    0  0  0  0  0  0  0  0  0  0  0  0
   10.2443   11.6949   22.9532 H    0  0  0  0  0  0  0  0  0  0  0  0
    9.7981    9.3063   23.2493 H    0  0  0  0  0  0  0  0  0  0  0  0
    7.9131    8.5325   24.6648 H    0  0  0  0  0  0  0  0  0  0  0  0
    6.8909   12.6294   25.5254 H    0  0  0  0  0  0  0  0  0  0  0  0
    5.2177   10.6859   28.4343 H    0  0  0  0  0  0  0  0  0  0  0  0
    5.5798   12.0655   27.3802 H    0  0  0  0  0  0  0  0  0  0  0  0
    6.9106   11.1487   28.1357 H    0  0  0  0  0  0  0  0  0  0  0  0
  9 10  1  0  0  0  0
  5  9  1  0  0  0  0
  6  5  1  0  0  0  0
  4  5  1  0  0  0  0
  3  4  1  0  0  0  0
  2  3  1  0  0  0  0
  1  2  2  0  0  0  0
 20  3  1  0  0  0  0
 21  3  1  0  0  0  0
 22  4  1  0  0  0  0
 23  4  1  0  0  0  0
 24  5  1  0  0  0  0
  7  6  2  0  0  0  0
  8  6  1  0  0  0  0
 25  8  1  0  0  0  0
 26  8  1  0  0  0  0
 27  9  1  0  0  0  0
 28  9  1  0  0  0  0
 11 10  1  0  0  0  0
 29 11  1  0  0  0  0
 30 11  1  0  0  0  0
 12 11  1  0  0  0  0
 13 12  1  0  0  0  0
 31 13  1  0  0  0  0
 14 13  2  0  0  0  0
 32 14  1  0  0  0  0
 15 14  1  0  0  0  0
 33 15  1  0  0  0  0
 16 12  2  0  0  0  0
 34 16  1  0  0  0  0
 17 15  2  0  0  0  0
 18 17  1  0  0  0  0
 19 18  1  0  0  0  0
 35 19  1  0  0  0  0
 36 19  1  0  0  0  0
 37 19  1  0  0  0  0
 10  2  1  0  0  0  0
 17 16  1  0  0  0  0
M  END
>  <FittedScore>
-36.13

$$$$
