A71EV2A-x4321a_best-RMSD
  FITTED

 40 41     0  0  0  0  0  0  0999 V2000
    9.7781   16.9207   19.2924 O    0  0  0  0  0  0  0  0  0  0  0  0
   10.2077   15.8469   19.6674 C    0  0  0  0  0  0  0  0  0  0  0  0
   10.6047   14.9317   18.7626 N    0  0  0  0  0  0  0  0  0  0  0  0
   10.2236   15.3893   21.1259 C    0  0  0  0  0  0  0  0  0  0  0  0
   11.2036   16.2548   21.9735 C    0  0  0  0  0  0  0  0  0  0  0  0
   11.1611   15.8374   23.4665 C    0  0  0  0  0  0  0  0  0  0  0  0
    9.7072   15.7748   24.0073 C    0  0  0  0  0  0  0  0  0  0  0  0
    8.7976   15.3795   21.7599 C    0  0  0  0  0  0  0  0  0  0  0  0
    8.8085   14.8899   23.1800 N    0  0  0  0  0  0  0  0  0  0  0  0
    8.0703   13.8091   23.6255 C    0  0  0  0  0  0  0  0  0  0  0  0
    7.3845   13.1444   22.8617 O    0  0  0  0  0  0  0  0  0  0  0  0
    8.1627   13.4050   25.1087 C    0  0  0  0  0  0  0  0  0  0  0  0
    7.3528   12.1560   25.5070 C    0  0  0  0  0  0  0  0  0  0  0  0
    7.7592   10.8278   25.1971 C    0  0  0  0  0  0  0  0  0  0  0  0
    9.0775   10.5856   24.4314 C    0  0  0  0  0  0  0  0  0  0  0  0
    9.3744    9.1783   24.1278 C    0  0  0  0  0  0  0  0  0  0  0  0
    9.6829    8.1070   23.9294 N    0  0  0  0  0  0  0  0  0  0  0  0
    6.1460   12.3646   26.2057 C    0  0  0  0  0  0  0  0  0  0  0  0
    5.3540   11.2892   26.6203 C    0  0  0  0  0  0  0  0  0  0  0  0
    5.7422    9.9838   26.3201 C    0  0  0  0  0  0  0  0  0  0  0  0
    6.9215    9.7559   25.6025 C    0  0  0  0  0  0  0  0  0  0  0  0
   10.5577   15.1639   17.7775 H    0  0  0  0  0  0  0  0  0  0  0  0
   10.8273   13.9762   19.0334 H    0  0  0  0  0  0  0  0  0  0  0  0
   10.5848   14.3569   21.1752 H    0  0  0  0  0  0  0  0  0  0  0  0
   12.2241   16.1321   21.5956 H    0  0  0  0  0  0  0  0  0  0  0  0
   10.9595   17.3204   21.8816 H    0  0  0  0  0  0  0  0  0  0  0  0
   11.6391   14.8625   23.5878 H    0  0  0  0  0  0  0  0  0  0  0  0
   11.7437   16.5492   24.0572 H    0  0  0  0  0  0  0  0  0  0  0  0
    9.7628   15.4934   25.0596 H    0  0  0  0  0  0  0  0  0  0  0  0
    9.2903   16.7889   24.0260 H    0  0  0  0  0  0  0  0  0  0  0  0
    8.1382   14.7921   21.1142 H    0  0  0  0  0  0  0  0  0  0  0  0
    8.3729   16.3906   21.7392 H    0  0  0  0  0  0  0  0  0  0  0  0
    9.2060   13.2369   25.3876 H    0  0  0  0  0  0  0  0  0  0  0  0
    7.8387   14.2570   25.7136 H    0  0  0  0  0  0  0  0  0  0  0  0
    9.0606   11.1109   23.4757 H    0  0  0  0  0  0  0  0  0  0  0  0
    9.9161   10.9831   25.0062 H    0  0  0  0  0  0  0  0  0  0  0  0
    5.8131   13.3762   26.4335 H    0  0  0  0  0  0  0  0  0  0  0  0
    4.4343   11.4735   27.1651 H    0  0  0  0  0  0  0  0  0  0  0  0
    5.1262    9.1450   26.6300 H    0  0  0  0  0  0  0  0  0  0  0  0
    7.1601    8.7179   25.3828 H    0  0  0  0  0  0  0  0  0  0  0  0
  9 10  1  0  0  0  0
  7  9  1  0  0  0  0
  6  7  1  0  0  0  0
  5  6  1  0  0  0  0
  4  5  1  0  0  0  0
  2  4  1  0  0  0  0
  1  2  2  0  0  0  0
  3  2  1  0  0  0  0
 22  3  1  0  0  0  0
 23  3  1  0  0  0  0
 24  4  1  0  0  0  0
 25  5  1  0  0  0  0
 26  5  1  0  0  0  0
 27  6  1  0  0  0  0
 28  6  1  0  0  0  0
 29  7  1  0  0  0  0
 30  7  1  0  0  0  0
  8  4  1  0  0  0  0
 31  8  1  0  0  0  0
 32  8  1  0  0  0  0
 11 10  2  0  0  0  0
 12 10  1  0  0  0  0
 33 12  1  0  0  0  0
 34 12  1  0  0  0  0
 13 12  1  0  0  0  0
 14 13  1  0  0  0  0
 21 14  2  0  0  0  0
 15 14  1  0  0  0  0
 35 15  1  0  0  0  0
 36 15  1  0  0  0  0
 16 15  1  0  0  0  0
 17 16  3  0  0  0  0
 18 13  2  0  0  0  0
 37 18  1  0  0  0  0
 19 18  1  0  0  0  0
 38 19  1  0  0  0  0
 20 19  2  0  0  0  0
 39 20  1  0  0  0  0
 40 21  1  0  0  0  0
  9  8  1  0  0  0  0
 21 20  1  0  0  0  0
M  END
>  <FittedScore>
-33.31

$$$$
