A71EV2A-x6841a_best-RMSD
  FITTED

 48 49     0  0  0  0  0  0  0999 V2000
    2.5203   14.8852   22.0587 C    0  0  0  0  0  0  0  0  0  0  0  0
    3.7295   15.7310   21.6075 C    0  0  0  0  0  0  0  0  0  0  0  0
    4.8715   15.5403   22.4963 O    0  0  0  0  0  0  0  0  0  0  0  0
    5.6421   14.4284   22.4834 C    0  0  0  0  0  0  0  0  0  0  0  0
    5.6158   13.5778   21.6074 O    0  0  0  0  0  0  0  0  0  0  0  0
    6.5000   14.4076   23.5224 N    0  0  0  0  0  0  0  0  0  0  0  0
    7.5109   13.3703   23.8170 C    0  0  0  0  0  0  0  0  0  0  0  0
    8.8363   14.0474   24.2134 C    0  0  0  0  0  0  0  0  0  0  0  0
    9.2767   13.9339   25.3450 O    0  0  0  0  0  0  0  0  0  0  0  0
    9.5272   14.7562   23.2539 N    0  0  0  0  0  0  0  0  0  0  0  0
   10.7404   15.5684   23.5022 C    0  0  0  0  0  0  0  0  0  0  0  0
   11.2832   16.0748   22.1515 C    0  0  0  0  0  0  0  0  0  0  0  0
   10.6278   15.1181   21.1422 C    0  0  0  0  0  0  0  0  0  0  0  0
   10.4865   15.6374   19.7160 C    0  0  0  0  0  0  0  0  0  0  0  0
   10.7286   14.7409   18.7441 N    0  0  0  0  0  0  0  0  0  0  0  0
    9.9216   16.6776   19.4401 O    0  0  0  0  0  0  0  0  0  0  0  0
    9.2783   14.7818   21.7928 C    0  0  0  0  0  0  0  0  0  0  0  0
    7.0041   12.2955   24.8169 C    0  0  0  0  0  0  0  0  0  0  0  0
    5.9827   12.5918   25.7545 C    0  0  0  0  0  0  0  0  0  0  0  0
    5.4418   11.5941   26.5738 C    0  0  0  0  0  0  0  0  0  0  0  0
    5.9096   10.2821   26.4766 C    0  0  0  0  0  0  0  0  0  0  0  0
    6.9521    9.9803   25.5966 C    0  0  0  0  0  0  0  0  0  0  0  0
    7.5436   10.9792   24.7965 C    0  0  0  0  0  0  0  0  0  0  0  0
    9.0184   10.6034   23.8405 S    0  0  0  0  0  0  0  0  0  0  0  0
    8.9730    8.8403   23.4216 C    0  0  0  0  0  0  0  0  0  0  0  0
    1.8968   15.4448   22.7586 H    0  0  0  0  0  0  0  0  0  0  0  0
    2.8134   13.9490   22.5390 H    0  0  0  0  0  0  0  0  0  0  0  0
    1.9080   14.6238   21.1936 H    0  0  0  0  0  0  0  0  0  0  0  0
    3.4592   16.7887   21.6394 H    0  0  0  0  0  0  0  0  0  0  0  0
    4.0037   15.5125   20.5700 H    0  0  0  0  0  0  0  0  0  0  0  0
    6.4511   15.1784   24.1813 H    0  0  0  0  0  0  0  0  0  0  0  0
    7.6737   12.8233   22.8900 H    0  0  0  0  0  0  0  0  0  0  0  0
   11.4995   14.9635   24.0086 H    0  0  0  0  0  0  0  0  0  0  0  0
   10.4874   16.4140   24.1491 H    0  0  0  0  0  0  0  0  0  0  0  0
   12.3760   16.0291   22.1080 H    0  0  0  0  0  0  0  0  0  0  0  0
   10.9744   17.1129   21.9805 H    0  0  0  0  0  0  0  0  0  0  0  0
   11.2337   14.1996   21.1360 H    0  0  0  0  0  0  0  0  0  0  0  0
   10.6850   15.0294   17.7730 H    0  0  0  0  0  0  0  0  0  0  0  0
   10.8939   13.7548   18.9600 H    0  0  0  0  0  0  0  0  0  0  0  0
    8.9345   13.8259   21.3973 H    0  0  0  0  0  0  0  0  0  0  0  0
    8.5169   15.5355   21.5655 H    0  0  0  0  0  0  0  0  0  0  0  0
    5.5802   13.5973   25.8527 H    0  0  0  0  0  0  0  0  0  0  0  0
    4.6449   11.8411   27.2693 H    0  0  0  0  0  0  0  0  0  0  0  0
    5.4783    9.4981   27.0965 H    0  0  0  0  0  0  0  0  0  0  0  0
    7.3177    8.9599   25.5910 H    0  0  0  0  0  0  0  0  0  0  0  0
    7.9969    8.5794   23.0090 H    0  0  0  0  0  0  0  0  0  0  0  0
    9.1780    8.2464   24.3126 H    0  0  0  0  0  0  0  0  0  0  0  0
    9.7439    8.6396   22.6779 H    0  0  0  0  0  0  0  0  0  0  0  0
  6  7  1  0  0  0  0
  4  6  1  0  0  0  0
  3  4  1  0  0  0  0
  2  3  1  0  0  0  0
  1  2  1  0  0  0  0
 26  1  1  0  0  0  0
 27  1  1  0  0  0  0
 28  1  1  0  0  0  0
 29  2  1  0  0  0  0
 30  2  1  0  0  0  0
  5  4  2  0  0  0  0
 31  6  1  0  0  0  0
  8  7  1  0  0  0  0
 18  7  1  0  0  0  0
 32  7  1  0  0  0  0
  9  8  2  0  0  0  0
 10  8  1  0  0  0  0
 11 10  1  0  0  0  0
 12 11  1  0  0  0  0
 33 11  1  0  0  0  0
 34 11  1  0  0  0  0
 13 12  1  0  0  0  0
 35 12  1  0  0  0  0
 36 12  1  0  0  0  0
 14 13  1  0  0  0  0
 17 13  1  0  0  0  0
 37 13  1  0  0  0  0
 15 14  1  0  0  0  0
 16 14  2  0  0  0  0
 38 15  1  0  0  0  0
 39 15  1  0  0  0  0
 40 17  1  0  0  0  0
 41 17  1  0  0  0  0
 19 18  2  0  0  0  0
 20 19  1  0  0  0  0
 42 19  1  0  0  0  0
 21 20  2  0  0  0  0
 43 20  1  0  0  0  0
 22 21  1  0  0  0  0
 44 21  1  0  0  0  0
 23 22  2  0  0  0  0
 45 22  1  0  0  0  0
 24 23  1  0  0  0  0
 25 24  1  0  0  0  0
 46 25  1  0  0  0  0
 47 25  1  0  0  0  0
 48 25  1  0  0  0  0
 17 10  1  0  0  0  0
 23 18  1  0  0  0  0
M  END
>  <FittedScore>
-42.42

$$$$
