A71EV2A-x6841a_lowest-energy
  FITTED

 48 49     0  0  0  0  0  0  0999 V2000
    2.6009   15.0639   22.4331 C    0  0  0  0  0  0  0  0  0  0  0  0
    3.7267   15.7815   21.6638 C    0  0  0  0  0  0  0  0  0  0  0  0
    4.9762   15.6474   22.3957 O    0  0  0  0  0  0  0  0  0  0  0  0
    5.6858   14.4884   22.4399 C    0  0  0  0  0  0  0  0  0  0  0  0
    5.5696   13.5798   21.6345 O    0  0  0  0  0  0  0  0  0  0  0  0
    6.5926   14.4947   23.4416 N    0  0  0  0  0  0  0  0  0  0  0  0
    7.5942   13.4461   23.7356 C    0  0  0  0  0  0  0  0  0  0  0  0
    8.9171   14.1105   24.1722 C    0  0  0  0  0  0  0  0  0  0  0  0
    9.2835   14.0465   25.3329 O    0  0  0  0  0  0  0  0  0  0  0  0
    9.6682   14.7700   23.2262 N    0  0  0  0  0  0  0  0  0  0  0  0
   10.8404   15.6381   23.4951 C    0  0  0  0  0  0  0  0  0  0  0  0
   11.3525   16.2006   22.1503 C    0  0  0  0  0  0  0  0  0  0  0  0
   10.7722   15.2104   21.1260 C    0  0  0  0  0  0  0  0  0  0  0  0
   10.5649   15.7251   19.7073 C    0  0  0  0  0  0  0  0  0  0  0  0
   10.8681   14.8389   18.7345 N    0  0  0  0  0  0  0  0  0  0  0  0
    9.8953   16.7066   19.4534 O    0  0  0  0  0  0  0  0  0  0  0  0
    9.4618   14.7520   21.7688 C    0  0  0  0  0  0  0  0  0  0  0  0
    7.0721   12.3527   24.7061 C    0  0  0  0  0  0  0  0  0  0  0  0
    6.0456   12.6407   25.6366 C    0  0  0  0  0  0  0  0  0  0  0  0
    5.4980   11.6342   26.4414 C    0  0  0  0  0  0  0  0  0  0  0  0
    5.9655   10.3237   26.3386 C    0  0  0  0  0  0  0  0  0  0  0  0
    7.0103   10.0274   25.4612 C    0  0  0  0  0  0  0  0  0  0  0  0
    7.6034   11.0320   24.6699 C    0  0  0  0  0  0  0  0  0  0  0  0
    9.0615   10.6486   23.6938 S    0  0  0  0  0  0  0  0  0  0  0  0
    9.1013    8.8640   23.3638 C    0  0  0  0  0  0  0  0  0  0  0  0
    2.6614   15.2667   23.5065 H    0  0  0  0  0  0  0  0  0  0  0  0
    2.6355   13.9811   22.2701 H    0  0  0  0  0  0  0  0  0  0  0  0
    1.6317   15.4194   22.0843 H    0  0  0  0  0  0  0  0  0  0  0  0
    3.5014   16.8517   21.5946 H    0  0  0  0  0  0  0  0  0  0  0  0
    3.8219   15.4143   20.6374 H    0  0  0  0  0  0  0  0  0  0  0  0
    6.5660   15.2775   24.0847 H    0  0  0  0  0  0  0  0  0  0  0  0
    7.7597   12.9222   22.7988 H    0  0  0  0  0  0  0  0  0  0  0  0
   11.6244   15.0565   23.9925 H    0  0  0  0  0  0  0  0  0  0  0  0
   10.5564   16.4582   24.1654 H    0  0  0  0  0  0  0  0  0  0  0  0
   12.4466   16.2242   22.1142 H    0  0  0  0  0  0  0  0  0  0  0  0
   10.9807   17.2203   21.9896 H    0  0  0  0  0  0  0  0  0  0  0  0
   11.4548   14.3514   21.1120 H    0  0  0  0  0  0  0  0  0  0  0  0
   11.0726   13.8678   18.9720 H    0  0  0  0  0  0  0  0  0  0  0  0
   10.7614   15.0860   17.7574 H    0  0  0  0  0  0  0  0  0  0  0  0
    9.2348   13.7533   21.3977 H    0  0  0  0  0  0  0  0  0  0  0  0
    8.6290   15.4169   21.5215 H    0  0  0  0  0  0  0  0  0  0  0  0
    5.6522   13.6488   25.7481 H    0  0  0  0  0  0  0  0  0  0  0  0
    4.6985   11.8729   27.1351 H    0  0  0  0  0  0  0  0  0  0  0  0
    5.5301    9.5360   26.9544 H    0  0  0  0  0  0  0  0  0  0  0  0
    7.3739    9.0040   25.4503 H    0  0  0  0  0  0  0  0  0  0  0  0
    9.3260    8.3208   24.2859 H    0  0  0  0  0  0  0  0  0  0  0  0
    9.8941    8.6600   22.6414 H    0  0  0  0  0  0  0  0  0  0  0  0
    8.1480    8.5348   22.9472 H    0  0  0  0  0  0  0  0  0  0  0  0
  6  7  1  0  0  0  0
  4  6  1  0  0  0  0
  3  4  1  0  0  0  0
  2  3  1  0  0  0  0
  1  2  1  0  0  0  0
 26  1  1  0  0  0  0
 27  1  1  0  0  0  0
 28  1  1  0  0  0  0
 29  2  1  0  0  0  0
 30  2  1  0  0  0  0
  5  4  2  0  0  0  0
 31  6  1  0  0  0  0
  8  7  1  0  0  0  0
 18  7  1  0  0  0  0
 32  7  1  0  0  0  0
  9  8  2  0  0  0  0
 10  8  1  0  0  0  0
 11 10  1  0  0  0  0
 12 11  1  0  0  0  0
 33 11  1  0  0  0  0
 34 11  1  0  0  0  0
 13 12  1  0  0  0  0
 35 12  1  0  0  0  0
 36 12  1  0  0  0  0
 14 13  1  0  0  0  0
 17 13  1  0  0  0  0
 37 13  1  0  0  0  0
 15 14  1  0  0  0  0
 16 14  2  0  0  0  0
 38 15  1  0  0  0  0
 39 15  1  0  0  0  0
 40 17  1  0  0  0  0
 41 17  1  0  0  0  0
 19 18  2  0  0  0  0
 20 19  1  0  0  0  0
 42 19  1  0  0  0  0
 21 20  2  0  0  0  0
 43 20  1  0  0  0  0
 22 21  1  0  0  0  0
 44 21  1  0  0  0  0
 23 22  2  0  0  0  0
 45 22  1  0  0  0  0
 24 23  1  0  0  0  0
 25 24  1  0  0  0  0
 46 25  1  0  0  0  0
 47 25  1  0  0  0  0
 48 25  1  0  0  0  0
 17 10  1  0  0  0  0
 23 18  1  0  0  0  0
M  END
>  <FittedScore>
-41.81

$$$$
