A71EV2A-x5550a_best-RMSD
  FITTED

 43 45     0  0  0  0  0  0  0999 V2000
   10.4629    8.6809   23.8297 CL   0  0  0  0  0  0  0  0  0  0  0  0
    9.6126    9.9446   24.6206 C    0  0  0  0  0  0  0  0  0  0  0  0
    8.2417    9.8120   24.8644 C    0  0  0  0  0  0  0  0  0  0  0  0
    7.5302   10.8758   25.4248 C    0  0  0  0  0  0  0  0  0  0  0  0
   10.2954   11.1059   24.9947 C    0  0  0  0  0  0  0  0  0  0  0  0
    9.5912   12.1632   25.5750 C    0  0  0  0  0  0  0  0  0  0  0  0
    8.1916   12.0797   25.7493 C    0  0  0  0  0  0  0  0  0  0  0  0
    7.3907   13.3369   26.1608 C    0  0  0  0  0  0  0  0  0  0  0  0
    5.9018   13.3217   26.6633 C    0  0  0  0  0  0  0  0  0  0  0  0
    5.4801   13.7019   25.2032 C    0  0  0  0  0  0  0  0  0  0  0  0
    6.8811   14.4348   25.1278 C    0  0  0  0  0  0  0  0  0  0  0  0
    7.4652   13.9341   23.7287 C    0  0  0  0  0  0  0  0  0  0  0  0
    7.0830   13.0446   22.9753 O    0  0  0  0  0  0  0  0  0  0  0  0
    8.5331   14.6873   23.2713 N    0  0  0  0  0  0  0  0  0  0  0  0
    9.4708   15.4978   24.1214 C    0  0  0  0  0  0  0  0  0  0  0  0
   10.9655   15.3884   23.7070 C    0  0  0  0  0  0  0  0  0  0  0  0
   11.1715   15.7665   22.2192 C    0  0  0  0  0  0  0  0  0  0  0  0
    8.7348   15.0026   21.8149 C    0  0  0  0  0  0  0  0  0  0  0  0
   10.2126   14.9518   21.3030 C    0  0  0  0  0  0  0  0  0  0  0  0
   10.3110   15.4340   19.8513 C    0  0  0  0  0  0  0  0  0  0  0  0
    9.9315   16.5278   19.4806 O    0  0  0  0  0  0  0  0  0  0  0  0
   10.7001   14.5219   18.9438 N    0  0  0  0  0  0  0  0  0  0  0  0
    7.7222    8.8964   24.5897 H    0  0  0  0  0  0  0  0  0  0  0  0
    6.4580   10.7643   25.5503 H    0  0  0  0  0  0  0  0  0  0  0  0
   11.3670   11.1919   24.8330 H    0  0  0  0  0  0  0  0  0  0  0  0
   10.1386   13.0548   25.8655 H    0  0  0  0  0  0  0  0  0  0  0  0
    8.1194   13.6965   26.8951 H    0  0  0  0  0  0  0  0  0  0  0  0
    5.5165   12.3688   27.0387 H    0  0  0  0  0  0  0  0  0  0  0  0
    5.6657   14.0826   27.4177 H    0  0  0  0  0  0  0  0  0  0  0  0
    5.2520   12.8199   24.5949 H    0  0  0  0  0  0  0  0  0  0  0  0
    4.6167   14.3692   25.1244 H    0  0  0  0  0  0  0  0  0  0  0  0
    6.9090   15.4993   25.3978 H    0  0  0  0  0  0  0  0  0  0  0  0
    9.1590   16.5464   24.0880 H    0  0  0  0  0  0  0  0  0  0  0  0
    9.4249   15.2116   25.1708 H    0  0  0  0  0  0  0  0  0  0  0  0
   11.5660   16.0508   24.3355 H    0  0  0  0  0  0  0  0  0  0  0  0
   11.3233   14.3692   23.8815 H    0  0  0  0  0  0  0  0  0  0  0  0
   11.0022   16.8405   22.0923 H    0  0  0  0  0  0  0  0  0  0  0  0
   12.2105   15.5802   21.9305 H    0  0  0  0  0  0  0  0  0  0  0  0
    8.3238   16.0035   21.6476 H    0  0  0  0  0  0  0  0  0  0  0  0
    8.1468   14.3525   21.1615 H    0  0  0  0  0  0  0  0  0  0  0  0
   10.5276   13.9022   21.3662 H    0  0  0  0  0  0  0  0  0  0  0  0
   10.8737   13.5596   19.2278 H    0  0  0  0  0  0  0  0  0  0  0  0
   10.6403   14.7404   17.9530 H    0  0  0  0  0  0  0  0  0  0  0  0
 12 14  1  0  0  0  0
 11 12  1  0  0  0  0
 10 11  1  0  0  0  0
  9 10  1  0  0  0  0
  8  9  1  0  0  0  0
  7  8  1  0  0  0  0
  4  7  2  0  0  0  0
  3  4  1  0  0  0  0
  2  3  2  0  0  0  0
  1  2  1  0  0  0  0
 23  3  1  0  0  0  0
 24  4  1  0  0  0  0
  5  2  1  0  0  0  0
 25  5  1  0  0  0  0
  6  5  2  0  0  0  0
 26  6  1  0  0  0  0
 27  8  1  0  0  0  0
 28  9  1  0  0  0  0
 29  9  1  0  0  0  0
 30 10  1  0  0  0  0
 31 10  1  0  0  0  0
 32 11  1  0  0  0  0
 13 12  2  0  0  0  0
 15 14  1  0  0  0  0
 33 15  1  0  0  0  0
 34 15  1  0  0  0  0
 16 15  1  0  0  0  0
 35 16  1  0  0  0  0
 36 16  1  0  0  0  0
 17 16  1  0  0  0  0
 37 17  1  0  0  0  0
 38 17  1  0  0  0  0
 18 14  1  0  0  0  0
 39 18  1  0  0  0  0
 40 18  1  0  0  0  0
 19 17  1  0  0  0  0
 20 19  1  0  0  0  0
 41 19  1  0  0  0  0
 21 20  2  0  0  0  0
 22 20  1  0  0  0  0
 42 22  1  0  0  0  0
 43 22  1  0  0  0  0
  7  6  1  0  0  0  0
 11  8  1  0  0  0  0
 19 18  1  0  0  0  0
M  END
>  <FittedScore>
-32.90

$$$$
