A71EV2A-x5550a_lowest-energy
  FITTED

 43 45     0  0  0  0  0  0  0999 V2000
   10.5551    8.6247   23.8135 CL   0  0  0  0  0  0  0  0  0  0  0  0
    9.7228    9.9185   24.5556 C    0  0  0  0  0  0  0  0  0  0  0  0
    8.3558    9.7861   24.8151 C    0  0  0  0  0  0  0  0  0  0  0  0
    7.6647   10.8441   25.3933 C    0  0  0  0  0  0  0  0  0  0  0  0
   10.4135   11.0880   24.8897 C    0  0  0  0  0  0  0  0  0  0  0  0
    9.7220   12.1468   25.4751 C    0  0  0  0  0  0  0  0  0  0  0  0
    8.3306   12.0501   25.6968 C    0  0  0  0  0  0  0  0  0  0  0  0
    7.5243   13.2916   26.1331 C    0  0  0  0  0  0  0  0  0  0  0  0
    6.0610   13.2257   26.6947 C    0  0  0  0  0  0  0  0  0  0  0  0
    5.5717   13.5420   25.2376 C    0  0  0  0  0  0  0  0  0  0  0  0
    6.9248   14.3542   25.1084 C    0  0  0  0  0  0  0  0  0  0  0  0
    7.5015   13.8769   23.6952 C    0  0  0  0  0  0  0  0  0  0  0  0
    7.0875   13.0184   22.9279 O    0  0  0  0  0  0  0  0  0  0  0  0
    8.5765   14.6209   23.2324 N    0  0  0  0  0  0  0  0  0  0  0  0
    9.4297   15.5232   24.0822 C    0  0  0  0  0  0  0  0  0  0  0  0
   10.9271   15.6089   23.6818 C    0  0  0  0  0  0  0  0  0  0  0  0
   11.0894   16.0002   22.1979 C    0  0  0  0  0  0  0  0  0  0  0  0
    8.8053   14.8803   21.7641 C    0  0  0  0  0  0  0  0  0  0  0  0
   10.2912   15.0115   21.3018 C    0  0  0  0  0  0  0  0  0  0  0  0
   10.3583   15.4487   19.8360 C    0  0  0  0  0  0  0  0  0  0  0  0
    9.9576   16.5253   19.4456 O    0  0  0  0  0  0  0  0  0  0  0  0
   10.7185   14.5152   18.9377 N    0  0  0  0  0  0  0  0  0  0  0  0
    7.8207    8.8764   24.5488 H    0  0  0  0  0  0  0  0  0  0  0  0
    6.5989   10.7271   25.5564 H    0  0  0  0  0  0  0  0  0  0  0  0
   11.4773   11.1734   24.6887 H    0  0  0  0  0  0  0  0  0  0  0  0
   10.2715   13.0456   25.7332 H    0  0  0  0  0  0  0  0  0  0  0  0
    8.2735   13.6806   26.8314 H    0  0  0  0  0  0  0  0  0  0  0  0
    5.7343   12.2702   27.1126 H    0  0  0  0  0  0  0  0  0  0  0  0
    5.8208   13.9978   27.4353 H    0  0  0  0  0  0  0  0  0  0  0  0
    5.3826   12.6366   24.6480 H    0  0  0  0  0  0  0  0  0  0  0  0
    4.6709   14.1546   25.1618 H    0  0  0  0  0  0  0  0  0  0  0  0
    6.9029   15.4189   25.3739 H    0  0  0  0  0  0  0  0  0  0  0  0
    8.9944   16.5268   24.0679 H    0  0  0  0  0  0  0  0  0  0  0  0
    9.4325   15.2121   25.1257 H    0  0  0  0  0  0  0  0  0  0  0  0
   11.4235   16.3564   24.3077 H    0  0  0  0  0  0  0  0  0  0  0  0
   11.4229   14.6523   23.8697 H    0  0  0  0  0  0  0  0  0  0  0  0
   10.7351   17.0263   22.0576 H    0  0  0  0  0  0  0  0  0  0  0  0
   12.1486   15.9954   21.9242 H    0  0  0  0  0  0  0  0  0  0  0  0
    8.2589   15.7967   21.5198 H    0  0  0  0  0  0  0  0  0  0  0  0
    8.3585   14.1110   21.1304 H    0  0  0  0  0  0  0  0  0  0  0  0
   10.7584   14.0282   21.4195 H    0  0  0  0  0  0  0  0  0  0  0  0
   10.7050   14.7464   17.9458 H    0  0  0  0  0  0  0  0  0  0  0  0
   10.8909   13.5530   19.2248 H    0  0  0  0  0  0  0  0  0  0  0  0
 12 14  1  0  0  0  0
 11 12  1  0  0  0  0
 10 11  1  0  0  0  0
  9 10  1  0  0  0  0
  8  9  1  0  0  0  0
  7  8  1  0  0  0  0
  4  7  2  0  0  0  0
  3  4  1  0  0  0  0
  2  3  2  0  0  0  0
  1  2  1  0  0  0  0
 23  3  1  0  0  0  0
 24  4  1  0  0  0  0
  5  2  1  0  0  0  0
 25  5  1  0  0  0  0
  6  5  2  0  0  0  0
 26  6  1  0  0  0  0
 27  8  1  0  0  0  0
 28  9  1  0  0  0  0
 29  9  1  0  0  0  0
 30 10  1  0  0  0  0
 31 10  1  0  0  0  0
 32 11  1  0  0  0  0
 13 12  2  0  0  0  0
 15 14  1  0  0  0  0
 33 15  1  0  0  0  0
 34 15  1  0  0  0  0
 16 15  1  0  0  0  0
 35 16  1  0  0  0  0
 36 16  1  0  0  0  0
 17 16  1  0  0  0  0
 37 17  1  0  0  0  0
 38 17  1  0  0  0  0
 18 14  1  0  0  0  0
 39 18  1  0  0  0  0
 40 18  1  0  0  0  0
 19 17  1  0  0  0  0
 20 19  1  0  0  0  0
 41 19  1  0  0  0  0
 21 20  2  0  0  0  0
 22 20  1  0  0  0  0
 42 22  1  0  0  0  0
 43 22  1  0  0  0  0
  7  6  1  0  0  0  0
 11  8  1  0  0  0  0
 19 18  1  0  0  0  0
M  END
>  <FittedScore>
-33.09

$$$$
