A71EV2A-x5584a_best-RMSD
  FITTED

 47 49     0  0  0  0  0  0  0999 V2000
    9.8469   16.6393   19.2865 O    0  0  0  0  0  0  0  0  0  0  0  0
   10.3831   15.6004   19.6283 C    0  0  0  0  0  0  0  0  0  0  0  0
   10.8526   14.7205   18.7225 N    0  0  0  0  0  0  0  0  0  0  0  0
   10.4449   15.1159   21.0700 C    0  0  0  0  0  0  0  0  0  0  0  0
   11.4185   15.9565   21.9404 C    0  0  0  0  0  0  0  0  0  0  0  0
   11.4853   15.3425   23.3648 C    0  0  0  0  0  0  0  0  0  0  0  0
   10.0760   15.1107   23.9885 C    0  0  0  0  0  0  0  0  0  0  0  0
    9.0356   15.0579   21.7249 C    0  0  0  0  0  0  0  0  0  0  0  0
    9.0749   14.4282   23.0804 N    0  0  0  0  0  0  0  0  0  0  0  0
    8.1758   13.4690   23.4763 C    0  0  0  0  0  0  0  0  0  0  0  0
    7.2469   13.1043   22.7662 O    0  0  0  0  0  0  0  0  0  0  0  0
    8.3733   12.9744   24.7254 O    0  0  0  0  0  0  0  0  0  0  0  0
    7.4907   12.1040   25.3173 C    0  0  0  0  0  0  0  0  0  0  0  0
    7.6180   10.7091   25.1663 C    0  0  0  0  0  0  0  0  0  0  0  0
    8.6526   10.1643   24.4862 F    0  0  0  0  0  0  0  0  0  0  0  0
    6.6340    9.8750   25.7167 C    0  0  0  0  0  0  0  0  0  0  0  0
    6.4224   12.6544   26.0382 C    0  0  0  0  0  0  0  0  0  0  0  0
    5.4424   11.8245   26.5914 C    0  0  0  0  0  0  0  0  0  0  0  0
    5.5333   10.4245   26.4069 C    0  0  0  0  0  0  0  0  0  0  0  0
    4.4560    9.5068   26.9857 C    0  0  0  0  0  0  0  0  0  0  0  0
    3.1761   10.2094   27.5145 C    0  0  0  0  0  0  0  0  0  0  0  0
    4.2565   12.4747   27.3148 C    0  0  0  0  0  0  0  0  0  0  0  0
    3.4941   11.5215   28.2354 N    0  0  0  0  0  0  0  0  0  0  0  0
    4.1887   11.3157   29.5820 C    0  0  0  0  0  0  0  0  0  0  0  0
   11.1317   13.7842   19.0064 H    0  0  0  0  0  0  0  0  0  0  0  0
   10.7943   14.9342   17.7369 H    0  0  0  0  0  0  0  0  0  0  0  0
   10.8244   14.0887   21.0709 H    0  0  0  0  0  0  0  0  0  0  0  0
   12.4165   15.9680   21.4890 H    0  0  0  0  0  0  0  0  0  0  0  0
   11.0765   16.9946   21.9940 H    0  0  0  0  0  0  0  0  0  0  0  0
   12.0274   14.3913   23.3258 H    0  0  0  0  0  0  0  0  0  0  0  0
   12.0602   16.0051   24.0161 H    0  0  0  0  0  0  0  0  0  0  0  0
   10.2441   14.5556   24.9156 H    0  0  0  0  0  0  0  0  0  0  0  0
    9.6605   16.0727   24.2998 H    0  0  0  0  0  0  0  0  0  0  0  0
    8.3719   14.5216   21.0373 H    0  0  0  0  0  0  0  0  0  0  0  0
    8.6134   16.0647   21.8143 H    0  0  0  0  0  0  0  0  0  0  0  0
    6.7255    8.7982   25.5899 H    0  0  0  0  0  0  0  0  0  0  0  0
    6.3487   13.7355   26.1412 H    0  0  0  0  0  0  0  0  0  0  0  0
    4.1589    8.7723   26.2317 H    0  0  0  0  0  0  0  0  0  0  0  0
    4.9067    8.9300   27.7973 H    0  0  0  0  0  0  0  0  0  0  0  0
    2.5311   10.4499   26.6650 H    0  0  0  0  0  0  0  0  0  0  0  0
    2.6011    9.5522   28.1775 H    0  0  0  0  0  0  0  0  0  0  0  0
    3.5560   12.8476   26.5637 H    0  0  0  0  0  0  0  0  0  0  0  0
    4.5796   13.3441   27.8938 H    0  0  0  0  0  0  0  0  0  0  0  0
    2.5948   11.9819   28.4546 H    0  0  0  0  0  0  0  0  0  0  0  0
    4.2299   12.2680   30.1187 H    0  0  0  0  0  0  0  0  0  0  0  0
    5.2108   10.9394   29.4562 H    0  0  0  0  0  0  0  0  0  0  0  0
    3.6157   10.6143   30.1975 H    0  0  0  0  0  0  0  0  0  0  0  0
 10 12  1  0  0  0  0
  9 10  1  0  0  0  0
  7  9  1  0  0  0  0
  6  7  1  0  0  0  0
  5  6  1  0  0  0  0
  4  5  1  0  0  0  0
  2  4  1  0  0  0  0
  1  2  2  0  0  0  0
  3  2  1  0  0  0  0
 25  3  1  0  0  0  0
 26  3  1  0  0  0  0
 27  4  1  0  0  0  0
 28  5  1  0  0  0  0
 29  5  1  0  0  0  0
 30  6  1  0  0  0  0
 31  6  1  0  0  0  0
 32  7  1  0  0  0  0
 33  7  1  0  0  0  0
  8  4  1  0  0  0  0
 34  8  1  0  0  0  0
 35  8  1  0  0  0  0
 11 10  2  0  0  0  0
 13 12  1  0  0  0  0
 14 13  1  0  0  0  0
 15 14  1  0  0  0  0
 16 14  2  0  0  0  0
 36 16  1  0  0  0  0
 17 13  2  0  0  0  0
 37 17  1  0  0  0  0
 18 17  1  0  0  0  0
 19 16  1  0  0  0  0
 20 19  1  0  0  0  0
 38 20  1  0  0  0  0
 39 20  1  0  0  0  0
 21 20  1  0  0  0  0
 40 21  1  0  0  0  0
 41 21  1  0  0  0  0
 22 18  1  0  0  0  0
 42 22  1  0  0  0  0
 43 22  1  0  0  0  0
 23 21  1  0  0  0  0
 44 23  1  0  0  0  0
 24 23  1  0  0  0  0
 45 24  1  0  0  0  0
 46 24  1  0  0  0  0
 47 24  1  0  0  0  0
  9  8  1  0  0  0  0
 19 18  2  0  0  0  0
 23 22  1  0  0  0  0
M  CHG  1  23   1
M  END
>  <FittedScore>
-30.32

$$$$
