A71EV2A-x5584a_lowest-energy
  FITTED

 47 49     0  0  0  0  0  0  0999 V2000
   10.0431   16.7283   19.2989 O    0  0  0  0  0  0  0  0  0  0  0  0
   10.4648   15.6383   19.6423 C    0  0  0  0  0  0  0  0  0  0  0  0
   10.8644   14.7325   18.7334 N    0  0  0  0  0  0  0  0  0  0  0  0
   10.3771   15.1201   21.0745 C    0  0  0  0  0  0  0  0  0  0  0  0
   11.3543   15.8839   22.0180 C    0  0  0  0  0  0  0  0  0  0  0  0
   11.1837   15.4047   23.4844 C    0  0  0  0  0  0  0  0  0  0  0  0
    9.6940   15.4176   23.9271 C    0  0  0  0  0  0  0  0  0  0  0  0
    8.9054   15.1461   21.5922 C    0  0  0  0  0  0  0  0  0  0  0  0
    8.7814   14.6595   23.0007 N    0  0  0  0  0  0  0  0  0  0  0  0
    7.8928   13.6882   23.3894 C    0  0  0  0  0  0  0  0  0  0  0  0
    7.1411   13.1499   22.5936 O    0  0  0  0  0  0  0  0  0  0  0  0
    7.8699   13.3777   24.7135 O    0  0  0  0  0  0  0  0  0  0  0  0
    7.0411   12.4139   25.2577 C    0  0  0  0  0  0  0  0  0  0  0  0
    7.3897   11.0535   25.2269 C    0  0  0  0  0  0  0  0  0  0  0  0
    8.5303   10.6368   24.6366 F    0  0  0  0  0  0  0  0  0  0  0  0
    6.5347   10.1060   25.7990 C    0  0  0  0  0  0  0  0  0  0  0  0
    5.8266   12.8211   25.8363 C    0  0  0  0  0  0  0  0  0  0  0  0
    4.9487   11.8714   26.3885 C    0  0  0  0  0  0  0  0  0  0  0  0
    5.3192   10.5059   26.3871 C    0  0  0  0  0  0  0  0  0  0  0  0
    4.3744    9.4504   26.9519 C    0  0  0  0  0  0  0  0  0  0  0  0
    3.1793    9.9667   27.7859 C    0  0  0  0  0  0  0  0  0  0  0  0
    3.6005   12.3290   26.9739 C    0  0  0  0  0  0  0  0  0  0  0  0
    2.5886   11.1829   27.0826 N    0  0  0  0  0  0  0  0  0  0  0  0
    1.2662   11.6043   27.7002 C    0  0  0  0  0  0  0  0  0  0  0  0
   11.0008   13.7650   19.0152 H    0  0  0  0  0  0  0  0  0  0  0  0
   10.8991   14.9772   17.7517 H    0  0  0  0  0  0  0  0  0  0  0  0
   10.6857   14.0662   21.1013 H    0  0  0  0  0  0  0  0  0  0  0  0
   12.3867   15.7018   21.7009 H    0  0  0  0  0  0  0  0  0  0  0  0
   11.1900   16.9667   21.9579 H    0  0  0  0  0  0  0  0  0  0  0  0
   11.5782   14.3898   23.5919 H    0  0  0  0  0  0  0  0  0  0  0  0
   11.7677   16.0452   24.1500 H    0  0  0  0  0  0  0  0  0  0  0  0
    9.6659   15.0349   24.9492 H    0  0  0  0  0  0  0  0  0  0  0  0
    9.3414   16.4510   23.9973 H    0  0  0  0  0  0  0  0  0  0  0  0
    8.3034   14.5544   20.8972 H    0  0  0  0  0  0  0  0  0  0  0  0
    8.4961   16.1576   21.5375 H    0  0  0  0  0  0  0  0  0  0  0  0
    6.8120    9.0566   25.7666 H    0  0  0  0  0  0  0  0  0  0  0  0
    5.5665   13.8782   25.8407 H    0  0  0  0  0  0  0  0  0  0  0  0
    3.9830    8.8654   26.1141 H    0  0  0  0  0  0  0  0  0  0  0  0
    4.9484    8.7530   27.5685 H    0  0  0  0  0  0  0  0  0  0  0  0
    2.4204    9.1782   27.8697 H    0  0  0  0  0  0  0  0  0  0  0  0
    3.4979   10.2359   28.7992 H    0  0  0  0  0  0  0  0  0  0  0  0
    3.1625   13.0979   26.3279 H    0  0  0  0  0  0  0  0  0  0  0  0
    3.7566   12.7725   27.9644 H    0  0  0  0  0  0  0  0  0  0  0  0
    2.3877   10.8788   26.1162 H    0  0  0  0  0  0  0  0  0  0  0  0
    1.3993   11.9082   28.7415 H    0  0  0  0  0  0  0  0  0  0  0  0
    0.5670   10.7659   27.6546 H    0  0  0  0  0  0  0  0  0  0  0  0
    0.8320   12.4288   27.1297 H    0  0  0  0  0  0  0  0  0  0  0  0
 10 12  1  0  0  0  0
  9 10  1  0  0  0  0
  7  9  1  0  0  0  0
  6  7  1  0  0  0  0
  5  6  1  0  0  0  0
  4  5  1  0  0  0  0
  2  4  1  0  0  0  0
  1  2  2  0  0  0  0
  3  2  1  0  0  0  0
 25  3  1  0  0  0  0
 26  3  1  0  0  0  0
 27  4  1  0  0  0  0
 28  5  1  0  0  0  0
 29  5  1  0  0  0  0
 30  6  1  0  0  0  0
 31  6  1  0  0  0  0
 32  7  1  0  0  0  0
 33  7  1  0  0  0  0
  8  4  1  0  0  0  0
 34  8  1  0  0  0  0
 35  8  1  0  0  0  0
 11 10  2  0  0  0  0
 13 12  1  0  0  0  0
 14 13  1  0  0  0  0
 15 14  1  0  0  0  0
 16 14  2  0  0  0  0
 36 16  1  0  0  0  0
 17 13  2  0  0  0  0
 37 17  1  0  0  0  0
 18 17  1  0  0  0  0
 19 16  1  0  0  0  0
 20 19  1  0  0  0  0
 38 20  1  0  0  0  0
 39 20  1  0  0  0  0
 21 20  1  0  0  0  0
 40 21  1  0  0  0  0
 41 21  1  0  0  0  0
 22 18  1  0  0  0  0
 42 22  1  0  0  0  0
 43 22  1  0  0  0  0
 23 21  1  0  0  0  0
 44 23  1  0  0  0  0
 24 23  1  0  0  0  0
 45 24  1  0  0  0  0
 46 24  1  0  0  0  0
 47 24  1  0  0  0  0
  9  8  1  0  0  0  0
 19 18  2  0  0  0  0
 23 22  1  0  0  0  0
M  CHG  1  23   1
M  END
>  <FittedScore>
-30.35

$$$$
