A71EV2A-x4778a_best-RMSD
  FITTED

 41 42     0  0  0  0  0  0  0999 V2000
    9.7311   16.9626   19.1110 O    0  0  0  0  0  0  0  0  0  0  0  0
   10.2058   15.9201   19.4971 C    0  0  0  0  0  0  0  0  0  0  0  0
   10.6493   15.0347   18.5898 N    0  0  0  0  0  0  0  0  0  0  0  0
   10.2784   15.4827   20.9595 C    0  0  0  0  0  0  0  0  0  0  0  0
   11.4989   16.4745   21.8875 S    0  0  0  0  0  0  0  0  0  0  0  0
   11.2819   15.6674   23.5060 C    0  0  0  0  0  0  0  0  0  0  0  0
    9.8080   15.6689   23.9592 C    0  0  0  0  0  0  0  0  0  0  0  0
    8.8843   15.4624   21.6649 C    0  0  0  0  0  0  0  0  0  0  0  0
    8.9167   14.8649   23.0494 N    0  0  0  0  0  0  0  0  0  0  0  0
    8.1766   13.7516   23.4168 C    0  0  0  0  0  0  0  0  0  0  0  0
    7.3499   13.2541   22.6672 O    0  0  0  0  0  0  0  0  0  0  0  0
    8.3953   13.1321   24.8108 C    0  0  0  0  0  0  0  0  0  0  0  0
    7.5231   11.9217   25.1687 C    0  0  0  0  0  0  0  0  0  0  0  0
    7.8577   10.6090   24.7676 C    0  0  0  0  0  0  0  0  0  0  0  0
    9.0155   10.4061   24.0132 O    0  0  0  0  0  0  0  0  0  0  0  0
    9.4050    9.1530   23.3996 C    0  0  0  0  0  0  0  0  0  0  0  0
    6.3728   12.1331   25.9600 C    0  0  0  0  0  0  0  0  0  0  0  0
    5.5433   11.0695   26.3735 C    0  0  0  0  0  0  0  0  0  0  0  0
    4.3178   11.3569   27.2712 C    0  0  0  0  0  0  0  0  0  0  0  0
    4.7211   11.6391   28.5214 F    0  0  0  0  0  0  0  0  0  0  0  0
    3.4228   10.3503   27.3744 F    0  0  0  0  0  0  0  0  0  0  0  0
    3.6210   12.4324   26.8480 F    0  0  0  0  0  0  0  0  0  0  0  0
    5.8868    9.7701   25.9577 C    0  0  0  0  0  0  0  0  0  0  0  0
    7.0196    9.5471   25.1637 C    0  0  0  0  0  0  0  0  0  0  0  0
   10.9522   14.1101   18.8807 H    0  0  0  0  0  0  0  0  0  0  0  0
   10.5165   15.2041   17.6021 H    0  0  0  0  0  0  0  0  0  0  0  0
   10.6523   14.4547   21.0079 H    0  0  0  0  0  0  0  0  0  0  0  0
   11.6494   14.6411   23.4350 H    0  0  0  0  0  0  0  0  0  0  0  0
   11.9025   16.1902   24.2367 H    0  0  0  0  0  0  0  0  0  0  0  0
    9.7978   15.3392   24.9957 H    0  0  0  0  0  0  0  0  0  0  0  0
    9.4380   16.6999   24.0097 H    0  0  0  0  0  0  0  0  0  0  0  0
    8.1885   14.9250   21.0124 H    0  0  0  0  0  0  0  0  0  0  0  0
    8.4768   16.4799   21.7210 H    0  0  0  0  0  0  0  0  0  0  0  0
    9.4469   12.8507   24.9222 H    0  0  0  0  0  0  0  0  0  0  0  0
    8.2175   13.8884   25.5789 H    0  0  0  0  0  0  0  0  0  0  0  0
    9.6397    8.4025   24.1576 H    0  0  0  0  0  0  0  0  0  0  0  0
   10.3016    9.3011   22.7961 H    0  0  0  0  0  0  0  0  0  0  0  0
    8.6182    8.7858   22.7357 H    0  0  0  0  0  0  0  0  0  0  0  0
    6.1206   13.1460   26.2718 H    0  0  0  0  0  0  0  0  0  0  0  0
    5.2775    8.9162   26.2469 H    0  0  0  0  0  0  0  0  0  0  0  0
    7.2375    8.5221   24.8729 H    0  0  0  0  0  0  0  0  0  0  0  0
  9 10  1  0  0  0  0
  7  9  1  0  0  0  0
  6  7  1  0  0  0  0
  5  6  1  0  0  0  0
  4  5  1  0  0  0  0
  2  4  1  0  0  0  0
  1  2  2  0  0  0  0
  3  2  1  0  0  0  0
 25  3  1  0  0  0  0
 26  3  1  0  0  0  0
 27  4  1  0  0  0  0
 28  6  1  0  0  0  0
 29  6  1  0  0  0  0
 30  7  1  0  0  0  0
 31  7  1  0  0  0  0
  8  4  1  0  0  0  0
 32  8  1  0  0  0  0
 33  8  1  0  0  0  0
 11 10  2  0  0  0  0
 12 10  1  0  0  0  0
 34 12  1  0  0  0  0
 35 12  1  0  0  0  0
 13 12  1  0  0  0  0
 14 13  1  0  0  0  0
 24 14  2  0  0  0  0
 15 14  1  0  0  0  0
 16 15  1  0  0  0  0
 36 16  1  0  0  0  0
 37 16  1  0  0  0  0
 38 16  1  0  0  0  0
 17 13  2  0  0  0  0
 39 17  1  0  0  0  0
 18 17  1  0  0  0  0
 19 18  1  0  0  0  0
 20 19  1  0  0  0  0
 21 19  1  0  0  0  0
 22 19  1  0  0  0  0
 23 18  2  0  0  0  0
 40 23  1  0  0  0  0
 41 24  1  0  0  0  0
  9  8  1  0  0  0  0
 24 23  1  0  0  0  0
M  END
>  <FittedScore>
-32.00

$$$$
