A71EV2A-x4778a_lowest-energy
  FITTED

 41 42     0  0  0  0  0  0  0999 V2000
    9.7594   16.9748   19.1465 O    0  0  0  0  0  0  0  0  0  0  0  0
   10.2708   15.9331   19.5085 C    0  0  0  0  0  0  0  0  0  0  0  0
   10.6743   15.0514   18.5835 N    0  0  0  0  0  0  0  0  0  0  0  0
   10.3485   15.4755   20.9658 C    0  0  0  0  0  0  0  0  0  0  0  0
   11.5311   16.4896   21.9265 S    0  0  0  0  0  0  0  0  0  0  0  0
   11.2382   15.7221   23.5554 C    0  0  0  0  0  0  0  0  0  0  0  0
    9.7432   15.7429   23.9218 C    0  0  0  0  0  0  0  0  0  0  0  0
    8.9285   15.3884   21.6147 C    0  0  0  0  0  0  0  0  0  0  0  0
    8.9164   14.8665   23.0235 N    0  0  0  0  0  0  0  0  0  0  0  0
    8.1777   13.7709   23.4295 C    0  0  0  0  0  0  0  0  0  0  0  0
    7.3311   13.2524   22.7128 O    0  0  0  0  0  0  0  0  0  0  0  0
    8.4049   13.2280   24.8467 C    0  0  0  0  0  0  0  0  0  0  0  0
    7.6346   11.9640   25.2049 C    0  0  0  0  0  0  0  0  0  0  0  0
    7.9555   10.7055   24.6526 C    0  0  0  0  0  0  0  0  0  0  0  0
    9.0363   10.6103   23.7711 O    0  0  0  0  0  0  0  0  0  0  0  0
    9.5857    9.3633   23.2753 C    0  0  0  0  0  0  0  0  0  0  0  0
    6.5893   12.0777   26.1372 C    0  0  0  0  0  0  0  0  0  0  0  0
    5.8572   10.9576   26.5561 C    0  0  0  0  0  0  0  0  0  0  0  0
    4.7590   11.1102   27.6239 C    0  0  0  0  0  0  0  0  0  0  0  0
    4.5992    9.9922   28.3526 F    0  0  0  0  0  0  0  0  0  0  0  0
    4.9931   12.1186   28.4926 F    0  0  0  0  0  0  0  0  0  0  0  0
    3.5735   11.3674   27.0391 F    0  0  0  0  0  0  0  0  0  0  0  0
    6.1426    9.7161   25.9581 C    0  0  0  0  0  0  0  0  0  0  0  0
    7.1740    9.5924   25.0166 C    0  0  0  0  0  0  0  0  0  0  0  0
   10.9848   14.1259   18.8602 H    0  0  0  0  0  0  0  0  0  0  0  0
   10.5443   15.2459   17.5979 H    0  0  0  0  0  0  0  0  0  0  0  0
   10.7750   14.4662   21.0119 H    0  0  0  0  0  0  0  0  0  0  0  0
   11.6121   14.6948   23.5448 H    0  0  0  0  0  0  0  0  0  0  0  0
   11.8103   16.2709   24.3056 H    0  0  0  0  0  0  0  0  0  0  0  0
    9.6608   15.5013   24.9782 H    0  0  0  0  0  0  0  0  0  0  0  0
    9.3643   16.7678   23.8636 H    0  0  0  0  0  0  0  0  0  0  0  0
    8.3138   14.7664   20.9532 H    0  0  0  0  0  0  0  0  0  0  0  0
    8.4655   16.3807   21.5969 H    0  0  0  0  0  0  0  0  0  0  0  0
    9.4690   13.0359   25.0094 H    0  0  0  0  0  0  0  0  0  0  0  0
    8.1283   14.0104   25.5583 H    0  0  0  0  0  0  0  0  0  0  0  0
   10.4693    9.5891   22.6748 H    0  0  0  0  0  0  0  0  0  0  0  0
    8.8758    8.8492   22.6212 H    0  0  0  0  0  0  0  0  0  0  0  0
    9.8858    8.7122   24.1002 H    0  0  0  0  0  0  0  0  0  0  0  0
    6.3432   13.0517   26.5516 H    0  0  0  0  0  0  0  0  0  0  0  0
    5.5778    8.8255   26.2281 H    0  0  0  0  0  0  0  0  0  0  0  0
    7.3584    8.6110   24.5905 H    0  0  0  0  0  0  0  0  0  0  0  0
  9 10  1  0  0  0  0
  7  9  1  0  0  0  0
  6  7  1  0  0  0  0
  5  6  1  0  0  0  0
  4  5  1  0  0  0  0
  2  4  1  0  0  0  0
  1  2  2  0  0  0  0
  3  2  1  0  0  0  0
 25  3  1  0  0  0  0
 26  3  1  0  0  0  0
 27  4  1  0  0  0  0
 28  6  1  0  0  0  0
 29  6  1  0  0  0  0
 30  7  1  0  0  0  0
 31  7  1  0  0  0  0
  8  4  1  0  0  0  0
 32  8  1  0  0  0  0
 33  8  1  0  0  0  0
 11 10  2  0  0  0  0
 12 10  1  0  0  0  0
 34 12  1  0  0  0  0
 35 12  1  0  0  0  0
 13 12  1  0  0  0  0
 14 13  1  0  0  0  0
 24 14  2  0  0  0  0
 15 14  1  0  0  0  0
 16 15  1  0  0  0  0
 36 16  1  0  0  0  0
 37 16  1  0  0  0  0
 38 16  1  0  0  0  0
 17 13  2  0  0  0  0
 39 17  1  0  0  0  0
 18 17  1  0  0  0  0
 19 18  1  0  0  0  0
 20 19  1  0  0  0  0
 21 19  1  0  0  0  0
 22 19  1  0  0  0  0
 23 18  2  0  0  0  0
 40 23  1  0  0  0  0
 41 24  1  0  0  0  0
  9  8  1  0  0  0  0
 24 23  1  0  0  0  0
M  END
>  <FittedScore>
-32.03

$$$$
