A71EV2A-x5383a_lowest-energy
  FITTED

 44 45     0  0  0  0  0  0  0999 V2000
    9.8146   16.5715   19.5385 O    0  0  0  0  0  0  0  0  0  0  0  0
   10.5795   15.6502   19.7642 C    0  0  0  0  0  0  0  0  0  0  0  0
   11.0230   14.8503   18.7776 N    0  0  0  0  0  0  0  0  0  0  0  0
   10.8059   15.0792   21.1554 C    0  0  0  0  0  0  0  0  0  0  0  0
   11.5353   15.9809   22.1484 C    0  0  0  0  0  0  0  0  0  0  0  0
   11.1375   15.3490   23.4989 C    0  0  0  0  0  0  0  0  0  0  0  0
    9.5138   14.6898   21.8841 C    0  0  0  0  0  0  0  0  0  0  0  0
    9.8498   14.6283   23.3216 N    0  0  0  0  0  0  0  0  0  0  0  0
    9.1278   14.0170   24.3222 C    0  0  0  0  0  0  0  0  0  0  0  0
    9.5805   13.9336   25.4523 O    0  0  0  0  0  0  0  0  0  0  0  0
    7.7523   13.4120   23.9719 C    0  0  0  0  0  0  0  0  0  0  0  0
    6.7506   14.4834   23.7453 N    0  0  0  0  0  0  0  0  0  0  0  0
    5.8633   14.5330   22.7188 C    0  0  0  0  0  0  0  0  0  0  0  0
    5.8005   13.6913   21.8320 O    0  0  0  0  0  0  0  0  0  0  0  0
    4.9258   15.7230   22.7630 C    0  0  0  0  0  0  0  0  0  0  0  0
    7.2603   12.3067   24.9447 C    0  0  0  0  0  0  0  0  0  0  0  0
    7.8119   10.9927   24.8919 C    0  0  0  0  0  0  0  0  0  0  0  0
    9.2564   10.6331   23.8872 S    0  0  0  0  0  0  0  0  0  0  0  0
    9.1619    8.8959   23.3878 C    0  0  0  0  0  0  0  0  0  0  0  0
    6.2064   12.5527   25.8600 C    0  0  0  0  0  0  0  0  0  0  0  0
    5.6582   11.5249   26.6376 C    0  0  0  0  0  0  0  0  0  0  0  0
    6.1609   10.2290   26.5296 C    0  0  0  0  0  0  0  0  0  0  0  0
    7.2340    9.9715   25.6707 C    0  0  0  0  0  0  0  0  0  0  0  0
   10.8816   15.0833   17.8000 H    0  0  0  0  0  0  0  0  0  0  0  0
   11.3781   13.9274   19.0286 H    0  0  0  0  0  0  0  0  0  0  0  0
   11.4014   14.1628   21.0718 H    0  0  0  0  0  0  0  0  0  0  0  0
   12.6192   15.9767   21.9865 H    0  0  0  0  0  0  0  0  0  0  0  0
   11.1650   17.0102   22.0754 H    0  0  0  0  0  0  0  0  0  0  0  0
   11.9157   14.6531   23.8304 H    0  0  0  0  0  0  0  0  0  0  0  0
   11.0304   16.1379   24.2481 H    0  0  0  0  0  0  0  0  0  0  0  0
    9.1642   13.7377   21.4824 H    0  0  0  0  0  0  0  0  0  0  0  0
    8.7257   15.4336   21.7277 H    0  0  0  0  0  0  0  0  0  0  0  0
    7.8551   12.8809   23.0294 H    0  0  0  0  0  0  0  0  0  0  0  0
    6.6819   15.1827   24.4846 H    0  0  0  0  0  0  0  0  0  0  0  0
    4.2826   15.6874   23.6468 H    0  0  0  0  0  0  0  0  0  0  0  0
    4.2784   15.7529   21.8843 H    0  0  0  0  0  0  0  0  0  0  0  0
    5.4861   16.6614   22.7851 H    0  0  0  0  0  0  0  0  0  0  0  0
    8.1854    8.6914   22.9414 H    0  0  0  0  0  0  0  0  0  0  0  0
    9.3344    8.2516   24.2453 H    0  0  0  0  0  0  0  0  0  0  0  0
    9.9391    8.7051   22.6434 H    0  0  0  0  0  0  0  0  0  0  0  0
    5.7753   13.5440   25.9741 H    0  0  0  0  0  0  0  0  0  0  0  0
    4.8312   11.7335   27.3161 H    0  0  0  0  0  0  0  0  0  0  0  0
    5.7271    9.4248   27.1189 H    0  0  0  0  0  0  0  0  0  0  0  0
    7.6276    8.9605   25.6613 H    0  0  0  0  0  0  0  0  0  0  0  0
 11 12  1  0  0  0  0
  9 11  1  0  0  0  0
  8  9  1  0  0  0  0
  6  8  1  0  0  0  0
  5  6  1  0  0  0  0
  4  5  1  0  0  0  0
  2  4  1  0  0  0  0
  1  2  2  0  0  0  0
  3  2  1  0  0  0  0
 24  3  1  0  0  0  0
 25  3  1  0  0  0  0
 26  4  1  0  0  0  0
 27  5  1  0  0  0  0
 28  5  1  0  0  0  0
 29  6  1  0  0  0  0
 30  6  1  0  0  0  0
  7  4  1  0  0  0  0
 31  7  1  0  0  0  0
 32  7  1  0  0  0  0
 10  9  2  0  0  0  0
 33 11  1  0  0  0  0
 34 12  1  0  0  0  0
 13 12  1  0  0  0  0
 14 13  2  0  0  0  0
 15 13  1  0  0  0  0
 35 15  1  0  0  0  0
 36 15  1  0  0  0  0
 37 15  1  0  0  0  0
 16 11  1  0  0  0  0
 17 16  1  0  0  0  0
 23 17  2  0  0  0  0
 18 17  1  0  0  0  0
 19 18  1  0  0  0  0
 38 19  1  0  0  0  0
 39 19  1  0  0  0  0
 40 19  1  0  0  0  0
 20 16  2  0  0  0  0
 41 20  1  0  0  0  0
 21 20  1  0  0  0  0
 42 21  1  0  0  0  0
 22 21  2  0  0  0  0
 43 22  1  0  0  0  0
 44 23  1  0  0  0  0
  8  7  1  0  0  0  0
 23 22  1  0  0  0  0
M  END
>  <FittedScore>
-38.11

$$$$
