A71EV2A-x5383a_best-RMSD
  FITTED

 44 45     0  0  0  0  0  0  0999 V2000
    9.8296   16.5528   19.5553 O    0  0  0  0  0  0  0  0  0  0  0  0
   10.5593   15.6091   19.7813 C    0  0  0  0  0  0  0  0  0  0  0  0
   10.9950   14.8020   18.7892 N    0  0  0  0  0  0  0  0  0  0  0  0
   10.8153   15.0797   21.1882 C    0  0  0  0  0  0  0  0  0  0  0  0
   11.4986   16.0259   22.1808 C    0  0  0  0  0  0  0  0  0  0  0  0
   11.1015   15.3946   23.5344 C    0  0  0  0  0  0  0  0  0  0  0  0
    9.5273   14.6615   21.9075 C    0  0  0  0  0  0  0  0  0  0  0  0
    9.8433   14.6319   23.3480 N    0  0  0  0  0  0  0  0  0  0  0  0
    9.1223   14.0184   24.3460 C    0  0  0  0  0  0  0  0  0  0  0  0
    9.5836   13.9401   25.4708 O    0  0  0  0  0  0  0  0  0  0  0  0
    7.7467   13.4149   23.9937 C    0  0  0  0  0  0  0  0  0  0  0  0
    6.7453   14.4892   23.7672 N    0  0  0  0  0  0  0  0  0  0  0  0
    5.8642   14.5330   22.7305 C    0  0  0  0  0  0  0  0  0  0  0  0
    5.7904   13.6743   21.8641 O    0  0  0  0  0  0  0  0  0  0  0  0
    4.9694   15.7577   22.7168 C    0  0  0  0  0  0  0  0  0  0  0  0
    7.2532   12.2996   24.9527 C    0  0  0  0  0  0  0  0  0  0  0  0
    7.7906   10.9832   24.8781 C    0  0  0  0  0  0  0  0  0  0  0  0
    9.2322   10.6249   23.8636 S    0  0  0  0  0  0  0  0  0  0  0  0
    9.1893    8.8715   23.4057 C    0  0  0  0  0  0  0  0  0  0  0  0
    6.2120   12.5514   25.8860 C    0  0  0  0  0  0  0  0  0  0  0  0
    5.6748   11.5238   26.6704 C    0  0  0  0  0  0  0  0  0  0  0  0
    6.1622   10.2230   26.5412 C    0  0  0  0  0  0  0  0  0  0  0  0
    7.2076    9.9556   25.6506 C    0  0  0  0  0  0  0  0  0  0  0  0
   11.3359   13.8693   19.0287 H    0  0  0  0  0  0  0  0  0  0  0  0
   10.8881   15.0623   17.8130 H    0  0  0  0  0  0  0  0  0  0  0  0
   11.4574   14.1940   21.1193 H    0  0  0  0  0  0  0  0  0  0  0  0
   12.5847   16.0532   22.0472 H    0  0  0  0  0  0  0  0  0  0  0  0
   11.1003   17.0428   22.0853 H    0  0  0  0  0  0  0  0  0  0  0  0
   11.8986   14.7280   23.8930 H    0  0  0  0  0  0  0  0  0  0  0  0
   10.9548   16.1790   24.2813 H    0  0  0  0  0  0  0  0  0  0  0  0
    9.2217   13.6883   21.5234 H    0  0  0  0  0  0  0  0  0  0  0  0
    8.7187   15.3822   21.7356 H    0  0  0  0  0  0  0  0  0  0  0  0
    7.8575   12.8889   23.0477 H    0  0  0  0  0  0  0  0  0  0  0  0
    6.6911   15.2033   24.4938 H    0  0  0  0  0  0  0  0  0  0  0  0
    5.5605   16.6696   22.5934 H    0  0  0  0  0  0  0  0  0  0  0  0
    4.3919   15.8309   23.6413 H    0  0  0  0  0  0  0  0  0  0  0  0
    4.2566   15.7195   21.8876 H    0  0  0  0  0  0  0  0  0  0  0  0
    9.9666    8.6835   22.6623 H    0  0  0  0  0  0  0  0  0  0  0  0
    8.2189    8.6120   22.9758 H    0  0  0  0  0  0  0  0  0  0  0  0
    9.3983    8.2575   24.2804 H    0  0  0  0  0  0  0  0  0  0  0  0
    5.7936   13.5452   26.0134 H    0  0  0  0  0  0  0  0  0  0  0  0
    4.8747   11.7367   27.3765 H    0  0  0  0  0  0  0  0  0  0  0  0
    5.7368    9.4205   27.1406 H    0  0  0  0  0  0  0  0  0  0  0  0
    7.5740    8.9356   25.6071 H    0  0  0  0  0  0  0  0  0  0  0  0
 11 12  1  0  0  0  0
  9 11  1  0  0  0  0
  8  9  1  0  0  0  0
  6  8  1  0  0  0  0
  5  6  1  0  0  0  0
  4  5  1  0  0  0  0
  2  4  1  0  0  0  0
  1  2  2  0  0  0  0
  3  2  1  0  0  0  0
 24  3  1  0  0  0  0
 25  3  1  0  0  0  0
 26  4  1  0  0  0  0
 27  5  1  0  0  0  0
 28  5  1  0  0  0  0
 29  6  1  0  0  0  0
 30  6  1  0  0  0  0
  7  4  1  0  0  0  0
 31  7  1  0  0  0  0
 32  7  1  0  0  0  0
 10  9  2  0  0  0  0
 33 11  1  0  0  0  0
 34 12  1  0  0  0  0
 13 12  1  0  0  0  0
 14 13  2  0  0  0  0
 15 13  1  0  0  0  0
 35 15  1  0  0  0  0
 36 15  1  0  0  0  0
 37 15  1  0  0  0  0
 16 11  1  0  0  0  0
 17 16  1  0  0  0  0
 23 17  2  0  0  0  0
 18 17  1  0  0  0  0
 19 18  1  0  0  0  0
 38 19  1  0  0  0  0
 39 19  1  0  0  0  0
 40 19  1  0  0  0  0
 20 16  2  0  0  0  0
 41 20  1  0  0  0  0
 21 20  1  0  0  0  0
 42 21  1  0  0  0  0
 22 21  2  0  0  0  0
 43 22  1  0  0  0  0
 44 23  1  0  0  0  0
  8  7  1  0  0  0  0
 23 22  1  0  0  0  0
M  END
>  <FittedScore>
-38.16

$$$$
