A71EV2A-x5203a_lowest-energy
  FITTED

 43 44     0  0  0  0  0  0  0999 V2000
    9.7292   16.9132   19.4316 O    0  0  0  0  0  0  0  0  0  0  0  0
   10.0386   15.8051   19.8186 C    0  0  0  0  0  0  0  0  0  0  0  0
   10.4829   14.8916   18.9352 N    0  0  0  0  0  0  0  0  0  0  0  0
    9.9173   15.3773   21.2833 C    0  0  0  0  0  0  0  0  0  0  0  0
   10.9867   16.1569   22.1194 C    0  0  0  0  0  0  0  0  0  0  0  0
   11.2484   15.5576   23.5282 C    0  0  0  0  0  0  0  0  0  0  0  0
   10.1676   15.9371   24.5689 C    0  0  0  0  0  0  0  0  0  0  0  0
    8.4148   15.4701   21.7560 C    0  0  0  0  0  0  0  0  0  0  0  0
    8.1162   16.0216   23.1779 C    0  0  0  0  0  0  0  0  0  0  0  0
    8.8364   15.3112   24.2822 N    0  0  0  0  0  0  0  0  0  0  0  0
    8.3993   14.1722   24.9206 C    0  0  0  0  0  0  0  0  0  0  0  0
    9.0951   13.6217   25.7549 O    0  0  0  0  0  0  0  0  0  0  0  0
    7.0401   13.5624   24.5421 C    0  0  0  0  0  0  0  0  0  0  0  0
    6.6980   12.2427   25.2486 C    0  0  0  0  0  0  0  0  0  0  0  0
    7.3271   11.0090   24.9224 C    0  0  0  0  0  0  0  0  0  0  0  0
    8.6624   10.9744   23.7127 S    0  0  0  0  0  0  0  0  0  0  0  0
    9.2644    9.2619   23.5270 C    0  0  0  0  0  0  0  0  0  0  0  0
    5.7128   12.2804   26.2539 C    0  0  0  0  0  0  0  0  0  0  0  0
    5.3187   11.1098   26.9090 C    0  0  0  0  0  0  0  0  0  0  0  0
    4.0032   11.2131   28.2808 BR   0  0  0  0  0  0  0  0  0  0  0  0
    5.8950    9.8807   26.5597 C    0  0  0  0  0  0  0  0  0  0  0  0
    6.8946    9.8359   25.5766 C    0  0  0  0  0  0  0  0  0  0  0  0
   10.4790   15.1211   17.9481 H    0  0  0  0  0  0  0  0  0  0  0  0
   10.6706   13.9356   19.2169 H    0  0  0  0  0  0  0  0  0  0  0  0
   10.1797   14.3157   21.3597 H    0  0  0  0  0  0  0  0  0  0  0  0
   11.9402   16.1345   21.5823 H    0  0  0  0  0  0  0  0  0  0  0  0
   10.7157   17.2151   22.1925 H    0  0  0  0  0  0  0  0  0  0  0  0
   11.3521   14.4687   23.4791 H    0  0  0  0  0  0  0  0  0  0  0  0
   12.2105   15.9302   23.8887 H    0  0  0  0  0  0  0  0  0  0  0  0
   10.5362   15.6537   25.5577 H    0  0  0  0  0  0  0  0  0  0  0  0
   10.0807   17.0252   24.6420 H    0  0  0  0  0  0  0  0  0  0  0  0
    7.9771   14.4751   21.6642 H    0  0  0  0  0  0  0  0  0  0  0  0
    7.8286   16.0845   21.0675 H    0  0  0  0  0  0  0  0  0  0  0  0
    7.0370   16.0063   23.3426 H    0  0  0  0  0  0  0  0  0  0  0  0
    8.3329   17.0939   23.1841 H    0  0  0  0  0  0  0  0  0  0  0  0
    6.2659   14.3040   24.7569 H    0  0  0  0  0  0  0  0  0  0  0  0
    6.9814   13.3884   23.4676 H    0  0  0  0  0  0  0  0  0  0  0  0
    9.6750    8.8943   24.4699 H    0  0  0  0  0  0  0  0  0  0  0  0
   10.0662    9.2729   22.7865 H    0  0  0  0  0  0  0  0  0  0  0  0
    8.4695    8.6002   23.1754 H    0  0  0  0  0  0  0  0  0  0  0  0
    5.2469   13.2271   26.5245 H    0  0  0  0  0  0  0  0  0  0  0  0
    5.5872    8.9600   27.0506 H    0  0  0  0  0  0  0  0  0  0  0  0
    7.3305    8.8688   25.3559 H    0  0  0  0  0  0  0  0  0  0  0  0
 10 11  1  0  0  0  0
  7 10  1  0  0  0  0
  6  7  1  0  0  0  0
  5  6  1  0  0  0  0
  4  5  1  0  0  0  0
  2  4  1  0  0  0  0
  1  2  2  0  0  0  0
  3  2  1  0  0  0  0
 23  3  1  0  0  0  0
 24  3  1  0  0  0  0
 25  4  1  0  0  0  0
 26  5  1  0  0  0  0
 27  5  1  0  0  0  0
 28  6  1  0  0  0  0
 29  6  1  0  0  0  0
 30  7  1  0  0  0  0
 31  7  1  0  0  0  0
  8  4  1  0  0  0  0
 32  8  1  0  0  0  0
 33  8  1  0  0  0  0
  9  8  1  0  0  0  0
 34  9  1  0  0  0  0
 35  9  1  0  0  0  0
 12 11  2  0  0  0  0
 13 11  1  0  0  0  0
 36 13  1  0  0  0  0
 37 13  1  0  0  0  0
 14 13  1  0  0  0  0
 15 14  1  0  0  0  0
 22 15  2  0  0  0  0
 16 15  1  0  0  0  0
 17 16  1  0  0  0  0
 38 17  1  0  0  0  0
 39 17  1  0  0  0  0
 40 17  1  0  0  0  0
 18 14  2  0  0  0  0
 41 18  1  0  0  0  0
 19 18  1  0  0  0  0
 20 19  1  0  0  0  0
 21 19  2  0  0  0  0
 42 21  1  0  0  0  0
 43 22  1  0  0  0  0
 10  9  1  0  0  0  0
 22 21  1  0  0  0  0
M  END
>  <FittedScore>
-35.12

$$$$
