A71EV2A-x5203a_best-RMSD
  FITTED

 43 44     0  0  0  0  0  0  0999 V2000
    9.7007   16.8830   19.3638 O    0  0  0  0  0  0  0  0  0  0  0  0
   10.0177   15.7786   19.7563 C    0  0  0  0  0  0  0  0  0  0  0  0
   10.5074   14.8687   18.8925 N    0  0  0  0  0  0  0  0  0  0  0  0
    9.9241   15.3661   21.2285 C    0  0  0  0  0  0  0  0  0  0  0  0
   11.0318   16.1327   22.0271 C    0  0  0  0  0  0  0  0  0  0  0  0
   11.3820   15.4712   23.3883 C    0  0  0  0  0  0  0  0  0  0  0  0
   10.3457   15.7317   24.5060 C    0  0  0  0  0  0  0  0  0  0  0  0
    8.4440   15.5271   21.7442 C    0  0  0  0  0  0  0  0  0  0  0  0
    8.2302   15.9271   23.2292 C    0  0  0  0  0  0  0  0  0  0  0  0
    9.0061   15.1180   24.2243 N    0  0  0  0  0  0  0  0  0  0  0  0
    8.5902   13.9343   24.7955 C    0  0  0  0  0  0  0  0  0  0  0  0
    9.2836   13.3657   25.6195 O    0  0  0  0  0  0  0  0  0  0  0  0
    7.2750   13.2871   24.3270 C    0  0  0  0  0  0  0  0  0  0  0  0
    6.8868   12.0033   25.0729 C    0  0  0  0  0  0  0  0  0  0  0  0
    7.5009   10.7513   24.8053 C    0  0  0  0  0  0  0  0  0  0  0  0
    8.9065   10.6607   23.6846 S    0  0  0  0  0  0  0  0  0  0  0  0
    9.3213    8.9135   23.3834 C    0  0  0  0  0  0  0  0  0  0  0  0
    5.8843   12.0948   26.0620 C    0  0  0  0  0  0  0  0  0  0  0  0
    5.4398   10.9501   26.7329 C    0  0  0  0  0  0  0  0  0  0  0  0
    4.1079   11.1177   28.0868 BR   0  0  0  0  0  0  0  0  0  0  0  0
    5.9818    9.7005   26.4070 C    0  0  0  0  0  0  0  0  0  0  0  0
    7.0086    9.6066   25.4589 C    0  0  0  0  0  0  0  0  0  0  0  0
   10.5224   15.0841   17.9021 H    0  0  0  0  0  0  0  0  0  0  0  0
   10.7166   13.9242   19.1975 H    0  0  0  0  0  0  0  0  0  0  0  0
   10.1501   14.2964   21.3029 H    0  0  0  0  0  0  0  0  0  0  0  0
   11.9528   16.1514   21.4352 H    0  0  0  0  0  0  0  0  0  0  0  0
   10.7483   17.1802   22.1613 H    0  0  0  0  0  0  0  0  0  0  0  0
   11.5204   14.3928   23.2661 H    0  0  0  0  0  0  0  0  0  0  0  0
   12.3483   15.8601   23.7193 H    0  0  0  0  0  0  0  0  0  0  0  0
   10.7687   15.3531   25.4396 H    0  0  0  0  0  0  0  0  0  0  0  0
   10.2557   16.8070   24.6852 H    0  0  0  0  0  0  0  0  0  0  0  0
    7.9104   14.5970   21.5392 H    0  0  0  0  0  0  0  0  0  0  0  0
    7.9110   16.2811   21.1593 H    0  0  0  0  0  0  0  0  0  0  0  0
    7.1623   15.9033   23.4459 H    0  0  0  0  0  0  0  0  0  0  0  0
    8.4513   16.9939   23.3259 H    0  0  0  0  0  0  0  0  0  0  0  0
    6.4620   14.0078   24.4290 H    0  0  0  0  0  0  0  0  0  0  0  0
    7.3327   13.0693   23.2592 H    0  0  0  0  0  0  0  0  0  0  0  0
    8.4708    8.3862   22.9461 H    0  0  0  0  0  0  0  0  0  0  0  0
    9.6439    8.4263   24.3049 H    0  0  0  0  0  0  0  0  0  0  0  0
   10.1484    8.8765   22.6715 H    0  0  0  0  0  0  0  0  0  0  0  0
    5.4431   13.0621   26.3082 H    0  0  0  0  0  0  0  0  0  0  0  0
    5.6337    8.7947   26.9020 H    0  0  0  0  0  0  0  0  0  0  0  0
    7.4304    8.6278   25.2750 H    0  0  0  0  0  0  0  0  0  0  0  0
 10 11  1  0  0  0  0
  7 10  1  0  0  0  0
  6  7  1  0  0  0  0
  5  6  1  0  0  0  0
  4  5  1  0  0  0  0
  2  4  1  0  0  0  0
  1  2  2  0  0  0  0
  3  2  1  0  0  0  0
 23  3  1  0  0  0  0
 24  3  1  0  0  0  0
 25  4  1  0  0  0  0
 26  5  1  0  0  0  0
 27  5  1  0  0  0  0
 28  6  1  0  0  0  0
 29  6  1  0  0  0  0
 30  7  1  0  0  0  0
 31  7  1  0  0  0  0
  8  4  1  0  0  0  0
 32  8  1  0  0  0  0
 33  8  1  0  0  0  0
  9  8  1  0  0  0  0
 34  9  1  0  0  0  0
 35  9  1  0  0  0  0
 12 11  2  0  0  0  0
 13 11  1  0  0  0  0
 36 13  1  0  0  0  0
 37 13  1  0  0  0  0
 14 13  1  0  0  0  0
 15 14  1  0  0  0  0
 22 15  2  0  0  0  0
 16 15  1  0  0  0  0
 17 16  1  0  0  0  0
 38 17  1  0  0  0  0
 39 17  1  0  0  0  0
 40 17  1  0  0  0  0
 18 14  2  0  0  0  0
 41 18  1  0  0  0  0
 19 18  1  0  0  0  0
 20 19  1  0  0  0  0
 21 19  2  0  0  0  0
 42 21  1  0  0  0  0
 43 22  1  0  0  0  0
 10  9  1  0  0  0  0
 22 21  1  0  0  0  0
M  END
>  <FittedScore>
-35.06

$$$$
