A71EV2A-x4306a_lowest-energy
  FITTED

 42 43     0  0  0  0  0  0  0999 V2000
   10.1017    9.9021   22.5158 F    0  0  0  0  0  0  0  0  0  0  0  0
   10.0438    9.4643   23.7783 C    0  0  0  0  0  0  0  0  0  0  0  0
   10.6845    8.2913   23.8365 F    0  0  0  0  0  0  0  0  0  0  0  0
   10.7429   10.3255   24.5368 F    0  0  0  0  0  0  0  0  0  0  0  0
    8.5847    9.3250   24.2549 C    0  0  0  0  0  0  0  0  0  0  0  0
    8.0656   10.6503   24.4931 O    0  0  0  0  0  0  0  0  0  0  0  0
    6.9280   11.0221   25.1823 C    0  0  0  0  0  0  0  0  0  0  0  0
    6.0233   10.0835   25.7256 C    0  0  0  0  0  0  0  0  0  0  0  0
    4.9270   10.5227   26.4811 C    0  0  0  0  0  0  0  0  0  0  0  0
    4.7374   11.8940   26.6941 C    0  0  0  0  0  0  0  0  0  0  0  0
    5.6200   12.8324   26.1447 C    0  0  0  0  0  0  0  0  0  0  0  0
    6.7114   12.4070   25.3722 C    0  0  0  0  0  0  0  0  0  0  0  0
    7.5931   13.4007   24.8036 N    0  0  0  0  0  0  0  0  0  0  0  0
    7.9174   13.5433   23.4881 C    0  0  0  0  0  0  0  0  0  0  0  0
    7.2353   12.9977   22.6500 O    0  0  0  0  0  0  0  0  0  0  0  0
    8.8739   14.4795   23.1595 N    0  0  0  0  0  0  0  0  0  0  0  0
    9.7995   15.1788   24.1199 C    0  0  0  0  0  0  0  0  0  0  0  0
   11.2502   15.4297   23.6050 C    0  0  0  0  0  0  0  0  0  0  0  0
   11.3063   15.9782   22.1500 C    0  0  0  0  0  0  0  0  0  0  0  0
    8.9714   15.0455   21.7757 C    0  0  0  0  0  0  0  0  0  0  0  0
   10.4183   15.1119   21.2101 C    0  0  0  0  0  0  0  0  0  0  0  0
   10.4271   15.6197   19.7652 C    0  0  0  0  0  0  0  0  0  0  0  0
    9.8471   16.6252   19.4051 O    0  0  0  0  0  0  0  0  0  0  0  0
   10.9048   14.7688   18.8363 N    0  0  0  0  0  0  0  0  0  0  0  0
    7.9629    8.8419   23.4955 H    0  0  0  0  0  0  0  0  0  0  0  0
    8.5418    8.7317   25.1731 H    0  0  0  0  0  0  0  0  0  0  0  0
    6.1596    9.0145   25.5742 H    0  0  0  0  0  0  0  0  0  0  0  0
    4.2262    9.8052   26.9099 H    0  0  0  0  0  0  0  0  0  0  0  0
    3.8938   12.2331   27.2876 H    0  0  0  0  0  0  0  0  0  0  0  0
    5.4453   13.8922   26.3167 H    0  0  0  0  0  0  0  0  0  0  0  0
    7.8428   14.1411   25.4479 H    0  0  0  0  0  0  0  0  0  0  0  0
    9.3463   16.1311   24.4117 H    0  0  0  0  0  0  0  0  0  0  0  0
    9.9115   14.5997   25.0400 H    0  0  0  0  0  0  0  0  0  0  0  0
   11.7424   16.1416   24.2734 H    0  0  0  0  0  0  0  0  0  0  0  0
   11.8264   14.5006   23.6647 H    0  0  0  0  0  0  0  0  0  0  0  0
   10.9884   17.0304   22.1306 H    0  0  0  0  0  0  0  0  0  0  0  0
   12.3407   15.9493   21.8003 H    0  0  0  0  0  0  0  0  0  0  0  0
    8.5344   16.0432   21.8071 H    0  0  0  0  0  0  0  0  0  0  0  0
    8.3591   14.5059   21.0480 H    0  0  0  0  0  0  0  0  0  0  0  0
   10.8168   14.0902   21.2407 H    0  0  0  0  0  0  0  0  0  0  0  0
   11.1700   13.8244   19.1055 H    0  0  0  0  0  0  0  0  0  0  0  0
   10.8044   14.9924   17.8531 H    0  0  0  0  0  0  0  0  0  0  0  0
 13 14  1  0  0  0  0
 12 13  1  0  0  0  0
 11 12  2  0  0  0  0
 10 11  1  0  0  0  0
  9 10  2  0  0  0  0
  8  9  1  0  0  0  0
  7  8  2  0  0  0  0
  6  7  1  0  0  0  0
  5  6  1  0  0  0  0
  2  5  1  0  0  0  0
  1  2  1  0  0  0  0
  3  2  1  0  0  0  0
  4  2  1  0  0  0  0
 25  5  1  0  0  0  0
 26  5  1  0  0  0  0
 27  8  1  0  0  0  0
 28  9  1  0  0  0  0
 29 10  1  0  0  0  0
 30 11  1  0  0  0  0
 31 13  1  0  0  0  0
 15 14  2  0  0  0  0
 16 14  1  0  0  0  0
 17 16  1  0  0  0  0
 32 17  1  0  0  0  0
 33 17  1  0  0  0  0
 18 17  1  0  0  0  0
 34 18  1  0  0  0  0
 35 18  1  0  0  0  0
 19 18  1  0  0  0  0
 36 19  1  0  0  0  0
 37 19  1  0  0  0  0
 20 16  1  0  0  0  0
 38 20  1  0  0  0  0
 39 20  1  0  0  0  0
 21 19  1  0  0  0  0
 22 21  1  0  0  0  0
 40 21  1  0  0  0  0
 23 22  2  0  0  0  0
 24 22  1  0  0  0  0
 41 24  1  0  0  0  0
 42 24  1  0  0  0  0
 12  7  1  0  0  0  0
 21 20  1  0  0  0  0
M  END
>  <FittedScore>
-37.85

$$$$
