A71EV2A-x5366b_lowest-energy
  FITTED

 43 44     0  0  0  0  0  0  0999 V2000
    9.6496   16.7461   19.1013 O    0  0  0  0  0  0  0  0  0  0  0  0
   10.2463   15.7573   19.4777 C    0  0  0  0  0  0  0  0  0  0  0  0
   10.7450   14.8881   18.5807 N    0  0  0  0  0  0  0  0  0  0  0  0
   10.3647   15.3268   20.9427 C    0  0  0  0  0  0  0  0  0  0  0  0
    8.9831   15.1177   21.6327 C    0  0  0  0  0  0  0  0  0  0  0  0
   11.2449   16.3086   21.7569 C    0  0  0  0  0  0  0  0  0  0  0  0
   11.4143   15.7625   23.1967 C    0  0  0  0  0  0  0  0  0  0  0  0
   10.0568   15.4064   23.8916 C    0  0  0  0  0  0  0  0  0  0  0  0
    9.4020   16.6635   24.5289 C    0  0  0  0  0  0  0  0  0  0  0  0
    9.0718   14.6122   23.0498 N    0  0  0  0  0  0  0  0  0  0  0  0
    8.2016   13.6518   23.5395 C    0  0  0  0  0  0  0  0  0  0  0  0
    7.3088   13.1829   22.8485 O    0  0  0  0  0  0  0  0  0  0  0  0
    8.3137   13.2239   25.0190 C    0  0  0  0  0  0  0  0  0  0  0  0
    7.5782   11.9288   25.3840 C    0  0  0  0  0  0  0  0  0  0  0  0
    7.9970   10.6562   24.9102 C    0  0  0  0  0  0  0  0  0  0  0  0
    9.4427   10.5240   23.8437 S    0  0  0  0  0  0  0  0  0  0  0  0
    9.6364    8.7998   23.3014 C    0  0  0  0  0  0  0  0  0  0  0  0
    6.4622   12.0244   26.2394 C    0  0  0  0  0  0  0  0  0  0  0  0
    5.7508   10.8764   26.6113 C    0  0  0  0  0  0  0  0  0  0  0  0
    4.2473   11.0253   27.7678 BR   0  0  0  0  0  0  0  0  0  0  0  0
    6.1449    9.6221   26.1304 C    0  0  0  0  0  0  0  0  0  0  0  0
    7.2588    9.5161   25.2898 C    0  0  0  0  0  0  0  0  0  0  0  0
   11.0491   13.9641   18.8874 H    0  0  0  0  0  0  0  0  0  0  0  0
   10.6529   15.0787   17.5867 H    0  0  0  0  0  0  0  0  0  0  0  0
   10.8671   14.3499   20.9826 H    0  0  0  0  0  0  0  0  0  0  0  0
    8.4041   16.0448   21.6261 H    0  0  0  0  0  0  0  0  0  0  0  0
    8.4304   14.4166   21.0036 H    0  0  0  0  0  0  0  0  0  0  0  0
   10.7995   17.3092   21.7792 H    0  0  0  0  0  0  0  0  0  0  0  0
   12.2283   16.4137   21.2890 H    0  0  0  0  0  0  0  0  0  0  0  0
   11.9822   16.4814   23.7941 H    0  0  0  0  0  0  0  0  0  0  0  0
   12.0332   14.8596   23.1591 H    0  0  0  0  0  0  0  0  0  0  0  0
   10.3988   14.8066   24.7343 H    0  0  0  0  0  0  0  0  0  0  0  0
   10.0838   17.1474   25.2346 H    0  0  0  0  0  0  0  0  0  0  0  0
    8.4984   16.4036   25.0819 H    0  0  0  0  0  0  0  0  0  0  0  0
    9.1238   17.3974   23.7697 H    0  0  0  0  0  0  0  0  0  0  0  0
    9.3533   13.0639   25.3156 H    0  0  0  0  0  0  0  0  0  0  0  0
    7.9615   14.0522   25.6411 H    0  0  0  0  0  0  0  0  0  0  0  0
    9.8437    8.1537   24.1542 H    0  0  0  0  0  0  0  0  0  0  0  0
   10.4808    8.7353   22.6127 H    0  0  0  0  0  0  0  0  0  0  0  0
    8.7426    8.4599   22.7755 H    0  0  0  0  0  0  0  0  0  0  0  0
    6.1469   12.9981   26.6085 H    0  0  0  0  0  0  0  0  0  0  0  0
    5.5973    8.7216   26.4034 H    0  0  0  0  0  0  0  0  0  0  0  0
    7.5259    8.5264   24.9403 H    0  0  0  0  0  0  0  0  0  0  0  0
 10 11  1  0  0  0  0
  5 10  1  0  0  0  0
  4  5  1  0  0  0  0
  2  4  1  0  0  0  0
  1  2  2  0  0  0  0
  3  2  1  0  0  0  0
 23  3  1  0  0  0  0
 24  3  1  0  0  0  0
 25  4  1  0  0  0  0
 26  5  1  0  0  0  0
 27  5  1  0  0  0  0
  6  4  1  0  0  0  0
 28  6  1  0  0  0  0
 29  6  1  0  0  0  0
  7  6  1  0  0  0  0
 30  7  1  0  0  0  0
 31  7  1  0  0  0  0
  8  7  1  0  0  0  0
  9  8  1  0  0  0  0
 32  8  1  0  0  0  0
 33  9  1  0  0  0  0
 34  9  1  0  0  0  0
 35  9  1  0  0  0  0
 12 11  2  0  0  0  0
 13 11  1  0  0  0  0
 36 13  1  0  0  0  0
 37 13  1  0  0  0  0
 14 13  1  0  0  0  0
 15 14  1  0  0  0  0
 22 15  2  0  0  0  0
 16 15  1  0  0  0  0
 17 16  1  0  0  0  0
 38 17  1  0  0  0  0
 39 17  1  0  0  0  0
 40 17  1  0  0  0  0
 18 14  2  0  0  0  0
 41 18  1  0  0  0  0
 19 18  1  0  0  0  0
 20 19  1  0  0  0  0
 21 19  2  0  0  0  0
 42 21  1  0  0  0  0
 43 22  1  0  0  0  0
 10  8  1  0  0  0  0
 22 21  1  0  0  0  0
M  END
>  <FittedScore>
-32.22

$$$$
