A71EV2A-x7545b_best-RMSD
  FITTED

 46 47     0  0  0  0  0  0  0999 V2000
    9.7267    8.6448   23.3790 C    0  0  0  0  0  0  0  0  0  0  0  0
    9.5651   10.4100   23.7797 S    0  0  0  0  0  0  0  0  0  0  0  0
    8.1622   10.5468   24.8704 C    0  0  0  0  0  0  0  0  0  0  0  0
    7.5023    9.3985   25.1870 N    0  0  0  0  0  0  0  0  0  0  0  0
    6.4119    9.4877   25.9817 C    0  0  0  0  0  0  0  0  0  0  0  0
    5.9250   10.6523   26.4668 N    0  0  0  0  0  0  0  0  0  0  0  0
    6.5635   11.8160   26.1838 C    0  0  0  0  0  0  0  0  0  0  0  0
    5.9939   12.9547   26.7262 N    0  0  0  0  0  0  0  0  0  0  0  0
    5.3504   13.9782   25.8771 C    0  0  0  0  0  0  0  0  0  0  0  0
    5.9831   13.1767   28.1872 C    0  0  0  0  0  0  0  0  0  0  0  0
    7.7361   11.8058   25.3763 C    0  0  0  0  0  0  0  0  0  0  0  0
    8.5043   13.0922   25.0459 C    0  0  0  0  0  0  0  0  0  0  0  0
    8.1864   13.6752   23.6603 C    0  0  0  0  0  0  0  0  0  0  0  0
    7.3813   13.1108   22.9308 O    0  0  0  0  0  0  0  0  0  0  0  0
    8.9171   14.7671   23.2348 N    0  0  0  0  0  0  0  0  0  0  0  0
    9.9711   15.5008   24.0213 C    0  0  0  0  0  0  0  0  0  0  0  0
   11.3886   15.2391   23.4510 C    0  0  0  0  0  0  0  0  0  0  0  0
   11.4704   15.6392   21.9546 C    0  0  0  0  0  0  0  0  0  0  0  0
   10.2907   15.0464   21.1263 C    0  0  0  0  0  0  0  0  0  0  0  0
   10.3082   15.5959   19.7007 C    0  0  0  0  0  0  0  0  0  0  0  0
   10.7506   14.7445   18.7637 N    0  0  0  0  0  0  0  0  0  0  0  0
    9.8642   16.6811   19.3818 O    0  0  0  0  0  0  0  0  0  0  0  0
    8.9138   15.2708   21.8245 C    0  0  0  0  0  0  0  0  0  0  0  0
    8.8219    8.2842   22.8853 H    0  0  0  0  0  0  0  0  0  0  0  0
    9.9116    8.0635   24.2846 H    0  0  0  0  0  0  0  0  0  0  0  0
   10.5678    8.5073   22.6981 H    0  0  0  0  0  0  0  0  0  0  0  0
    5.8864    8.5696   26.2340 H    0  0  0  0  0  0  0  0  0  0  0  0
    4.3687   14.2660   26.2591 H    0  0  0  0  0  0  0  0  0  0  0  0
    5.1919   13.6228   24.8547 H    0  0  0  0  0  0  0  0  0  0  0  0
    5.9588   14.8833   25.8079 H    0  0  0  0  0  0  0  0  0  0  0  0
    4.9645   13.2072   28.5848 H    0  0  0  0  0  0  0  0  0  0  0  0
    6.4713   14.1176   28.4498 H    0  0  0  0  0  0  0  0  0  0  0  0
    6.5136   12.3905   28.7325 H    0  0  0  0  0  0  0  0  0  0  0  0
    9.5750   12.8945   25.1292 H    0  0  0  0  0  0  0  0  0  0  0  0
    8.3208   13.8457   25.8133 H    0  0  0  0  0  0  0  0  0  0  0  0
    9.9866   15.2624   25.0840 H    0  0  0  0  0  0  0  0  0  0  0  0
    9.7594   16.5752   23.9968 H    0  0  0  0  0  0  0  0  0  0  0  0
   11.6460   14.1816   23.5729 H    0  0  0  0  0  0  0  0  0  0  0  0
   12.1267   15.8137   24.0155 H    0  0  0  0  0  0  0  0  0  0  0  0
   12.4191   15.2811   21.5468 H    0  0  0  0  0  0  0  0  0  0  0  0
   11.4729   16.7297   21.8744 H    0  0  0  0  0  0  0  0  0  0  0  0
   10.4381   13.9572   21.0922 H    0  0  0  0  0  0  0  0  0  0  0  0
   10.9239   13.7743   19.0157 H    0  0  0  0  0  0  0  0  0  0  0  0
   10.6766   14.9917   17.7849 H    0  0  0  0  0  0  0  0  0  0  0  0
    8.1373   14.8093   21.2092 H    0  0  0  0  0  0  0  0  0  0  0  0
    8.6764   16.3393   21.8284 H    0  0  0  0  0  0  0  0  0  0  0  0
 12 13  1  0  0  0  0
 11 12  1  0  0  0  0
  7 11  2  0  0  0  0
  6  7  1  0  0  0  0
  5  6  2  0  0  0  0
  4  5  1  0  0  0  0
  3  4  2  0  0  0  0
  2  3  1  0  0  0  0
  1  2  1  0  0  0  0
 24  1  1  0  0  0  0
 25  1  1  0  0  0  0
 26  1  1  0  0  0  0
 27  5  1  0  0  0  0
  8  7  1  0  0  0  0
  9  8  1  0  0  0  0
 10  8  1  0  0  0  0
 28  9  1  0  0  0  0
 29  9  1  0  0  0  0
 30  9  1  0  0  0  0
 31 10  1  0  0  0  0
 32 10  1  0  0  0  0
 33 10  1  0  0  0  0
 34 12  1  0  0  0  0
 35 12  1  0  0  0  0
 14 13  2  0  0  0  0
 15 13  1  0  0  0  0
 16 15  1  0  0  0  0
 17 16  1  0  0  0  0
 36 16  1  0  0  0  0
 37 16  1  0  0  0  0
 18 17  1  0  0  0  0
 38 17  1  0  0  0  0
 39 17  1  0  0  0  0
 19 18  1  0  0  0  0
 40 18  1  0  0  0  0
 41 18  1  0  0  0  0
 20 19  1  0  0  0  0
 23 19  1  0  0  0  0
 42 19  1  0  0  0  0
 21 20  1  0  0  0  0
 22 20  2  0  0  0  0
 43 21  1  0  0  0  0
 44 21  1  0  0  0  0
 45 23  1  0  0  0  0
 46 23  1  0  0  0  0
 11  3  1  0  0  0  0
 23 15  1  0  0  0  0
M  END
>  <FittedScore>
-34.64

$$$$
