A71EV2A-x4322a_best-RMSD
  FITTED

 43 44     0  0  0  0  0  0  0999 V2000
    9.7879   16.6001   19.2218 O    0  0  0  0  0  0  0  0  0  0  0  0
   10.2682   15.5395   19.5823 C    0  0  0  0  0  0  0  0  0  0  0  0
   10.8321   14.6942   18.7008 N    0  0  0  0  0  0  0  0  0  0  0  0
   10.1964   14.9985   21.0069 C    0  0  0  0  0  0  0  0  0  0  0  0
   11.4577   15.3807   21.8302 C    0  0  0  0  0  0  0  0  0  0  0  0
   11.4207   14.6712   23.2073 C    0  0  0  0  0  0  0  0  0  0  0  0
   10.0444   14.8046   23.9360 C    0  0  0  0  0  0  0  0  0  0  0  0
    8.9232   15.4128   21.8010 C    0  0  0  0  0  0  0  0  0  0  0  0
    8.8000   14.6360   23.0790 N    0  0  0  0  0  0  0  0  0  0  0  0
    7.7138   13.8211   23.3386 C    0  0  0  0  0  0  0  0  0  0  0  0
    6.9143   13.5128   22.4634 O    0  0  0  0  0  0  0  0  0  0  0  0
    7.5975   13.1005   24.6817 C    0  0  0  0  0  0  0  0  0  0  0  0
    8.1403   11.6587   24.6076 C    0  0  0  0  0  0  0  0  0  0  0  0
    9.2604   11.3641   23.7913 C    0  0  0  0  0  0  0  0  0  0  0  0
    9.6540   10.0584   23.5346 C    0  0  0  0  0  0  0  0  0  0  0  0
    8.9546    9.0147   24.1165 C    0  0  0  0  0  0  0  0  0  0  0  0
    7.8866    9.2716   24.9816 C    0  0  0  0  0  0  0  0  0  0  0  0
    7.4701   10.5865   25.2552 C    0  0  0  0  0  0  0  0  0  0  0  0
    6.3983   10.8370   26.1850 N    0  0  0  0  0  0  0  0  0  0  0  0
    5.2821   10.1260   26.4905 C    0  0  0  0  0  0  0  0  0  0  0  0
    4.9397    9.1254   25.8918 O    0  0  0  0  0  0  0  0  0  0  0  0
    4.2759   10.8731   27.3358 C    0  0  0  0  0  0  0  0  0  0  0  0
   10.8822   14.9438   17.7209 H    0  0  0  0  0  0  0  0  0  0  0  0
   11.0506   13.7436   18.9921 H    0  0  0  0  0  0  0  0  0  0  0  0
   10.1597   13.9035   20.9438 H    0  0  0  0  0  0  0  0  0  0  0  0
   12.3642   15.0818   21.2964 H    0  0  0  0  0  0  0  0  0  0  0  0
   11.5169   16.4643   21.9688 H    0  0  0  0  0  0  0  0  0  0  0  0
   11.6590   13.6128   23.0627 H    0  0  0  0  0  0  0  0  0  0  0  0
   12.2155   15.0743   23.8429 H    0  0  0  0  0  0  0  0  0  0  0  0
   10.0952   14.0973   24.7631 H    0  0  0  0  0  0  0  0  0  0  0  0
    9.9968   15.7892   24.4130 H    0  0  0  0  0  0  0  0  0  0  0  0
    8.0487   15.2931   21.1571 H    0  0  0  0  0  0  0  0  0  0  0  0
    8.9501   16.4824   22.0363 H    0  0  0  0  0  0  0  0  0  0  0  0
    8.0640   13.6248   25.5163 H    0  0  0  0  0  0  0  0  0  0  0  0
    6.5318   13.1232   24.9307 H    0  0  0  0  0  0  0  0  0  0  0  0
    9.8168   12.1329   23.2807 H    0  0  0  0  0  0  0  0  0  0  0  0
   10.4856    9.8580   22.8710 H    0  0  0  0  0  0  0  0  0  0  0  0
    9.2425    7.9918   23.9097 H    0  0  0  0  0  0  0  0  0  0  0  0
    7.4077    8.4234   25.4642 H    0  0  0  0  0  0  0  0  0  0  0  0
    6.3691   11.8044   26.4674 H    0  0  0  0  0  0  0  0  0  0  0  0
    3.7966   11.6421   26.7224 H    0  0  0  0  0  0  0  0  0  0  0  0
    4.7442   11.3487   28.2047 H    0  0  0  0  0  0  0  0  0  0  0  0
    3.5035   10.1919   27.7061 H    0  0  0  0  0  0  0  0  0  0  0  0
  9 10  1  0  0  0  0
  7  9  1  0  0  0  0
  6  7  1  0  0  0  0
  5  6  1  0  0  0  0
  4  5  1  0  0  0  0
  2  4  1  0  0  0  0
  1  2  2  0  0  0  0
  3  2  1  0  0  0  0
 23  3  1  0  0  0  0
 24  3  1  0  0  0  0
 25  4  1  0  0  0  0
 26  5  1  0  0  0  0
 27  5  1  0  0  0  0
 28  6  1  0  0  0  0
 29  6  1  0  0  0  0
 30  7  1  0  0  0  0
 31  7  1  0  0  0  0
  8  4  1  0  0  0  0
 32  8  1  0  0  0  0
 33  8  1  0  0  0  0
 11 10  2  0  0  0  0
 12 10  1  0  0  0  0
 34 12  1  0  0  0  0
 35 12  1  0  0  0  0
 13 12  1  0  0  0  0
 14 13  1  0  0  0  0
 36 14  1  0  0  0  0
 15 14  2  0  0  0  0
 37 15  1  0  0  0  0
 16 15  1  0  0  0  0
 38 16  1  0  0  0  0
 17 16  2  0  0  0  0
 39 17  1  0  0  0  0
 18 17  1  0  0  0  0
 19 18  1  0  0  0  0
 40 19  1  0  0  0  0
 20 19  1  0  0  0  0
 21 20  2  0  0  0  0
 22 20  1  0  0  0  0
 41 22  1  0  0  0  0
 42 22  1  0  0  0  0
 43 22  1  0  0  0  0
  9  8  1  0  0  0  0
 18 13  2  0  0  0  0
M  END
>  <FittedScore>
-34.38

$$$$
