A71EV2A-x7424a_lowest-energy
  FITTED

 57 59     0  0  0  0  0  0  0999 V2000
    9.5368    8.5864   23.4009 C    0  0  0  0  0  0  0  0  0  0  0  0
    9.4948   10.3333   23.8994 S    0  0  0  0  0  0  0  0  0  0  0  0
    8.0720   10.5387   24.9553 C    0  0  0  0  0  0  0  0  0  0  0  0
    7.3634    9.4180   25.2617 N    0  0  0  0  0  0  0  0  0  0  0  0
    6.2759    9.5437   26.0545 C    0  0  0  0  0  0  0  0  0  0  0  0
    5.8251   10.7167   26.5521 N    0  0  0  0  0  0  0  0  0  0  0  0
    6.5073   11.8594   26.2679 C    0  0  0  0  0  0  0  0  0  0  0  0
    5.9786   13.0185   26.8140 N    0  0  0  0  0  0  0  0  0  0  0  0
    5.9209   13.1436   28.2967 C    0  0  0  0  0  0  0  0  0  0  0  0
    5.1768   13.9322   25.9451 C    0  0  0  0  0  0  0  0  0  0  0  0
    5.6195   15.4318   26.0441 C    0  0  0  0  0  0  0  0  0  0  0  0
    4.7449   16.3482   25.1525 C    0  0  0  0  0  0  0  0  0  0  0  0
    3.3310   16.1059   25.4259 O    0  0  0  0  0  0  0  0  0  0  0  0
    2.8297   14.7375   25.2750 C    0  0  0  0  0  0  0  0  0  0  0  0
    3.6419   13.7652   26.1747 C    0  0  0  0  0  0  0  0  0  0  0  0
    7.6725   11.8136   25.4497 C    0  0  0  0  0  0  0  0  0  0  0  0
    8.4432   13.0904   25.0683 C    0  0  0  0  0  0  0  0  0  0  0  0
    8.0534   13.6681   23.6961 C    0  0  0  0  0  0  0  0  0  0  0  0
    7.2010   13.1152   23.0143 O    0  0  0  0  0  0  0  0  0  0  0  0
    8.7629   14.7501   23.2165 N    0  0  0  0  0  0  0  0  0  0  0  0
    9.6979   15.6267   23.9995 C    0  0  0  0  0  0  0  0  0  0  0  0
   11.1600   15.5200   23.5020 C    0  0  0  0  0  0  0  0  0  0  0  0
   11.2730   15.8549   21.9899 C    0  0  0  0  0  0  0  0  0  0  0  0
   10.2011   15.0938   21.1475 C    0  0  0  0  0  0  0  0  0  0  0  0
   10.2300   15.5873   19.7017 C    0  0  0  0  0  0  0  0  0  0  0  0
   10.7822   14.7446   18.8067 N    0  0  0  0  0  0  0  0  0  0  0  0
    9.7577   16.6495   19.3400 O    0  0  0  0  0  0  0  0  0  0  0  0
    8.7686   15.1694   21.7778 C    0  0  0  0  0  0  0  0  0  0  0  0
   10.3857    8.4141   22.7371 H    0  0  0  0  0  0  0  0  0  0  0  0
    8.6175    8.3414   22.8644 H    0  0  0  0  0  0  0  0  0  0  0  0
    9.6348    7.9432   24.2780 H    0  0  0  0  0  0  0  0  0  0  0  0
    5.7196    8.6414   26.3004 H    0  0  0  0  0  0  0  0  0  0  0  0
    5.7246   14.1549   28.6559 H    0  0  0  0  0  0  0  0  0  0  0  0
    6.8629   12.8308   28.7544 H    0  0  0  0  0  0  0  0  0  0  0  0
    5.1359   12.5100   28.7179 H    0  0  0  0  0  0  0  0  0  0  0  0
    5.3330   13.6501   24.9000 H    0  0  0  0  0  0  0  0  0  0  0  0
    6.6629   15.5426   25.7474 H    0  0  0  0  0  0  0  0  0  0  0  0
    5.5453   15.7987   27.0698 H    0  0  0  0  0  0  0  0  0  0  0  0
    4.9460   16.1743   24.0908 H    0  0  0  0  0  0  0  0  0  0  0  0
    4.9609   17.3966   25.3653 H    0  0  0  0  0  0  0  0  0  0  0  0
    2.8876   14.4366   24.2247 H    0  0  0  0  0  0  0  0  0  0  0  0
    1.7766   14.7191   25.5669 H    0  0  0  0  0  0  0  0  0  0  0  0
    3.3465   12.7352   25.9529 H    0  0  0  0  0  0  0  0  0  0  0  0
    3.3787   13.9551   27.2197 H    0  0  0  0  0  0  0  0  0  0  0  0
    9.5169   12.9001   25.0864 H    0  0  0  0  0  0  0  0  0  0  0  0
    8.3019   13.8397   25.8449 H    0  0  0  0  0  0  0  0  0  0  0  0
    9.6859   15.4393   25.0696 H    0  0  0  0  0  0  0  0  0  0  0  0
    9.3651   16.6641   23.9131 H    0  0  0  0  0  0  0  0  0  0  0  0
   11.5390   14.5098   23.6849 H    0  0  0  0  0  0  0  0  0  0  0  0
   11.7933   16.2054   24.0699 H    0  0  0  0  0  0  0  0  0  0  0  0
   12.2716   15.5854   21.6354 H    0  0  0  0  0  0  0  0  0  0  0  0
   11.1678   16.9373   21.8495 H    0  0  0  0  0  0  0  0  0  0  0  0
   10.4817   14.0332   21.1714 H    0  0  0  0  0  0  0  0  0  0  0  0
   10.7693   14.9791   17.8214 H    0  0  0  0  0  0  0  0  0  0  0  0
   11.0103   13.7916   19.0915 H    0  0  0  0  0  0  0  0  0  0  0  0
    8.0975   14.5577   21.1661 H    0  0  0  0  0  0  0  0  0  0  0  0
    8.3697   16.1883   21.7033 H    0  0  0  0  0  0  0  0  0  0  0  0
 16 17  1  0  0  0  0
  7 16  2  0  0  0  0
  6  7  1  0  0  0  0
  5  6  2  0  0  0  0
  4  5  1  0  0  0  0
  3  4  2  0  0  0  0
  2  3  1  0  0  0  0
  1  2  1  0  0  0  0
 29  1  1  0  0  0  0
 30  1  1  0  0  0  0
 31  1  1  0  0  0  0
 32  5  1  0  0  0  0
  8  7  1  0  0  0  0
  9  8  1  0  0  0  0
 10  8  1  0  0  0  0
 33  9  1  0  0  0  0
 34  9  1  0  0  0  0
 35  9  1  0  0  0  0
 11 10  1  0  0  0  0
 36 10  1  0  0  0  0
 12 11  1  0  0  0  0
 37 11  1  0  0  0  0
 38 11  1  0  0  0  0
 13 12  1  0  0  0  0
 39 12  1  0  0  0  0
 40 12  1  0  0  0  0
 14 13  1  0  0  0  0
 15 14  1  0  0  0  0
 41 14  1  0  0  0  0
 42 14  1  0  0  0  0
 43 15  1  0  0  0  0
 44 15  1  0  0  0  0
 18 17  1  0  0  0  0
 45 17  1  0  0  0  0
 46 17  1  0  0  0  0
 19 18  2  0  0  0  0
 20 18  1  0  0  0  0
 21 20  1  0  0  0  0
 22 21  1  0  0  0  0
 47 21  1  0  0  0  0
 48 21  1  0  0  0  0
 23 22  1  0  0  0  0
 49 22  1  0  0  0  0
 50 22  1  0  0  0  0
 24 23  1  0  0  0  0
 51 23  1  0  0  0  0
 52 23  1  0  0  0  0
 25 24  1  0  0  0  0
 28 24  1  0  0  0  0
 53 24  1  0  0  0  0
 26 25  1  0  0  0  0
 27 25  2  0  0  0  0
 54 26  1  0  0  0  0
 55 26  1  0  0  0  0
 56 28  1  0  0  0  0
 57 28  1  0  0  0  0
 15 10  1  0  0  0  0
 16  3  1  0  0  0  0
 28 20  1  0  0  0  0
M  END
>  <FittedScore>
-35.91

$$$$
