A71EV2A-x7424a_best-RMSD
  FITTED

 57 59     0  0  0  0  0  0  0999 V2000
    9.5994    8.6033   23.4808 C    0  0  0  0  0  0  0  0  0  0  0  0
    9.4923   10.3622   23.9365 S    0  0  0  0  0  0  0  0  0  0  0  0
    8.0380   10.5528   24.9598 C    0  0  0  0  0  0  0  0  0  0  0  0
    7.3575    9.4201   25.2726 N    0  0  0  0  0  0  0  0  0  0  0  0
    6.2302    9.5330   26.0101 C    0  0  0  0  0  0  0  0  0  0  0  0
    5.6956   10.7085   26.4103 N    0  0  0  0  0  0  0  0  0  0  0  0
    6.3438   11.8733   26.1189 C    0  0  0  0  0  0  0  0  0  0  0  0
    5.7129   13.0460   26.5522 N    0  0  0  0  0  0  0  0  0  0  0  0
    5.2834   14.0787   25.5750 C    0  0  0  0  0  0  0  0  0  0  0  0
    5.2654   13.2845   27.9645 C    0  0  0  0  0  0  0  0  0  0  0  0
    6.2301   12.6773   29.0436 C    0  0  0  0  0  0  0  0  0  0  0  0
    5.6661   12.8453   30.4768 C    0  0  0  0  0  0  0  0  0  0  0  0
    4.3001   12.3274   30.5215 O    0  0  0  0  0  0  0  0  0  0  0  0
    3.3234   12.9699   29.6558 C    0  0  0  0  0  0  0  0  0  0  0  0
    3.7740   12.8392   28.1799 C    0  0  0  0  0  0  0  0  0  0  0  0
    7.5857   11.8304   25.4025 C    0  0  0  0  0  0  0  0  0  0  0  0
    8.3916   13.1006   25.0643 C    0  0  0  0  0  0  0  0  0  0  0  0
    8.1133   13.6578   23.6591 C    0  0  0  0  0  0  0  0  0  0  0  0
    7.3127   13.0884   22.9297 O    0  0  0  0  0  0  0  0  0  0  0  0
    8.8315   14.7514   23.2200 N    0  0  0  0  0  0  0  0  0  0  0  0
    9.8252   15.5630   24.0112 C    0  0  0  0  0  0  0  0  0  0  0  0
   11.2637   15.4713   23.4284 C    0  0  0  0  0  0  0  0  0  0  0  0
   11.2934   15.8867   21.9347 C    0  0  0  0  0  0  0  0  0  0  0  0
   10.1990   15.1225   21.1291 C    0  0  0  0  0  0  0  0  0  0  0  0
   10.1930   15.6023   19.6860 C    0  0  0  0  0  0  0  0  0  0  0  0
   10.7729   14.7679   18.8005 N    0  0  0  0  0  0  0  0  0  0  0  0
    9.6862   16.6461   19.3260 O    0  0  0  0  0  0  0  0  0  0  0  0
    8.7951   15.2324   21.8055 C    0  0  0  0  0  0  0  0  0  0  0  0
    9.7070    7.9919   24.3778 H    0  0  0  0  0  0  0  0  0  0  0  0
   10.4714    8.4425   22.8416 H    0  0  0  0  0  0  0  0  0  0  0  0
    8.7006    8.3058   22.9362 H    0  0  0  0  0  0  0  0  0  0  0  0
    5.7070    8.6175   26.2792 H    0  0  0  0  0  0  0  0  0  0  0  0
    5.1853   13.6723   24.5658 H    0  0  0  0  0  0  0  0  0  0  0  0
    5.9914   14.9101   25.5334 H    0  0  0  0  0  0  0  0  0  0  0  0
    4.3089   14.5126   25.8027 H    0  0  0  0  0  0  0  0  0  0  0  0
    5.2860   14.3643   28.1548 H    0  0  0  0  0  0  0  0  0  0  0  0
    7.2105   13.1594   28.9726 H    0  0  0  0  0  0  0  0  0  0  0  0
    6.3986   11.6091   28.8878 H    0  0  0  0  0  0  0  0  0  0  0  0
    5.6822   13.8962   30.7828 H    0  0  0  0  0  0  0  0  0  0  0  0
    6.2741   12.2823   31.1865 H    0  0  0  0  0  0  0  0  0  0  0  0
    3.2059   14.0184   29.9428 H    0  0  0  0  0  0  0  0  0  0  0  0
    2.3611   12.4756   29.8029 H    0  0  0  0  0  0  0  0  0  0  0  0
    3.0987   13.4332   27.5605 H    0  0  0  0  0  0  0  0  0  0  0  0
    3.6299   11.7976   27.8842 H    0  0  0  0  0  0  0  0  0  0  0  0
    9.4634   12.9056   25.1594 H    0  0  0  0  0  0  0  0  0  0  0  0
    8.1957   13.8677   25.8152 H    0  0  0  0  0  0  0  0  0  0  0  0
    9.8664   15.3003   25.0679 H    0  0  0  0  0  0  0  0  0  0  0  0
    9.5050   16.6111   24.0012 H    0  0  0  0  0  0  0  0  0  0  0  0
   11.6305   14.4444   23.5319 H    0  0  0  0  0  0  0  0  0  0  0  0
   11.9380   16.1115   24.0036 H    0  0  0  0  0  0  0  0  0  0  0  0
   12.2809   15.6694   21.5189 H    0  0  0  0  0  0  0  0  0  0  0  0
   11.1520   16.9690   21.8519 H    0  0  0  0  0  0  0  0  0  0  0  0
   10.4639   14.0566   21.1562 H    0  0  0  0  0  0  0  0  0  0  0  0
   11.0171   13.8215   19.0957 H    0  0  0  0  0  0  0  0  0  0  0  0
   10.8158   15.0213   17.8202 H    0  0  0  0  0  0  0  0  0  0  0  0
    8.0745   14.6849   21.1901 H    0  0  0  0  0  0  0  0  0  0  0  0
    8.4418   16.2687   21.7975 H    0  0  0  0  0  0  0  0  0  0  0  0
 16 17  1  0  0  0  0
  7 16  2  0  0  0  0
  6  7  1  0  0  0  0
  5  6  2  0  0  0  0
  4  5  1  0  0  0  0
  3  4  2  0  0  0  0
  2  3  1  0  0  0  0
  1  2  1  0  0  0  0
 29  1  1  0  0  0  0
 30  1  1  0  0  0  0
 31  1  1  0  0  0  0
 32  5  1  0  0  0  0
  8  7  1  0  0  0  0
  9  8  1  0  0  0  0
 10  8  1  0  0  0  0
 33  9  1  0  0  0  0
 34  9  1  0  0  0  0
 35  9  1  0  0  0  0
 11 10  1  0  0  0  0
 36 10  1  0  0  0  0
 12 11  1  0  0  0  0
 37 11  1  0  0  0  0
 38 11  1  0  0  0  0
 13 12  1  0  0  0  0
 39 12  1  0  0  0  0
 40 12  1  0  0  0  0
 14 13  1  0  0  0  0
 15 14  1  0  0  0  0
 41 14  1  0  0  0  0
 42 14  1  0  0  0  0
 43 15  1  0  0  0  0
 44 15  1  0  0  0  0
 18 17  1  0  0  0  0
 45 17  1  0  0  0  0
 46 17  1  0  0  0  0
 19 18  2  0  0  0  0
 20 18  1  0  0  0  0
 21 20  1  0  0  0  0
 22 21  1  0  0  0  0
 47 21  1  0  0  0  0
 48 21  1  0  0  0  0
 23 22  1  0  0  0  0
 49 22  1  0  0  0  0
 50 22  1  0  0  0  0
 24 23  1  0  0  0  0
 51 23  1  0  0  0  0
 52 23  1  0  0  0  0
 25 24  1  0  0  0  0
 28 24  1  0  0  0  0
 53 24  1  0  0  0  0
 26 25  1  0  0  0  0
 27 25  2  0  0  0  0
 54 26  1  0  0  0  0
 55 26  1  0  0  0  0
 56 28  1  0  0  0  0
 57 28  1  0  0  0  0
 15 10  1  0  0  0  0
 16  3  1  0  0  0  0
 28 20  1  0  0  0  0
M  END
>  <FittedScore>
-35.26

$$$$
