A71EV2A-x3548a_best-RMSD
  FITTED

 39 40     0  0  0  0  0  0  0999 V2000
    9.9319   16.8069   19.0590 O    0  0  0  0  0  0  0  0  0  0  0  0
   10.4277   15.7635   19.4344 C    0  0  0  0  0  0  0  0  0  0  0  0
   10.8503   14.8531   18.5397 N    0  0  0  0  0  0  0  0  0  0  0  0
   10.4971   15.3368   20.8958 C    0  0  0  0  0  0  0  0  0  0  0  0
   11.3230   16.3547   21.7306 C    0  0  0  0  0  0  0  0  0  0  0  0
   11.3595   15.9072   23.2104 C    0  0  0  0  0  0  0  0  0  0  0  0
    9.9358   15.6352   23.7662 C    0  0  0  0  0  0  0  0  0  0  0  0
    9.0783   15.0972   21.5089 C    0  0  0  0  0  0  0  0  0  0  0  0
    9.1134   14.6710   22.9469 N    0  0  0  0  0  0  0  0  0  0  0  0
    8.3158   13.6585   23.4462 C    0  0  0  0  0  0  0  0  0  0  0  0
    7.4651   13.1170   22.7526 O    0  0  0  0  0  0  0  0  0  0  0  0
    8.5038   13.2258   24.9099 C    0  0  0  0  0  0  0  0  0  0  0  0
    7.7462   11.9614   25.3300 C    0  0  0  0  0  0  0  0  0  0  0  0
    8.0685   10.6958   24.7896 C    0  0  0  0  0  0  0  0  0  0  0  0
    9.1125   10.6038   23.8717 O    0  0  0  0  0  0  0  0  0  0  0  0
    9.6226    9.3774   23.3079 C    0  0  0  0  0  0  0  0  0  0  0  0
    6.7107   12.0437   26.2866 C    0  0  0  0  0  0  0  0  0  0  0  0
    6.0044   10.9568   26.7024 N    0  0  0  0  0  0  0  0  0  0  0  0
    6.2926    9.7471   26.1518 C    0  0  0  0  0  0  0  0  0  0  0  0
    7.3048    9.5819   25.1981 C    0  0  0  0  0  0  0  0  0  0  0  0
   10.7982   15.0601   17.5479 H    0  0  0  0  0  0  0  0  0  0  0  0
   11.1065   13.9164   18.8430 H    0  0  0  0  0  0  0  0  0  0  0  0
   11.0260   14.3760   20.9602 H    0  0  0  0  0  0  0  0  0  0  0  0
   12.3423   16.4127   21.3411 H    0  0  0  0  0  0  0  0  0  0  0  0
   10.9019   17.3623   21.6532 H    0  0  0  0  0  0  0  0  0  0  0  0
   11.9704   15.0055   23.3022 H    0  0  0  0  0  0  0  0  0  0  0  0
   11.8466   16.6764   23.8121 H    0  0  0  0  0  0  0  0  0  0  0  0
   10.0688   15.3253   24.8010 H    0  0  0  0  0  0  0  0  0  0  0  0
    9.3888   16.5804   23.8225 H    0  0  0  0  0  0  0  0  0  0  0  0
    8.5844   14.3553   20.8755 H    0  0  0  0  0  0  0  0  0  0  0  0
    8.4680   16.0021   21.4266 H    0  0  0  0  0  0  0  0  0  0  0  0
    9.5651   13.0382   25.1008 H    0  0  0  0  0  0  0  0  0  0  0  0
    8.2168   14.0566   25.5586 H    0  0  0  0  0  0  0  0  0  0  0  0
    8.8436    8.8541   22.7494 H    0  0  0  0  0  0  0  0  0  0  0  0
   10.0130    8.7349   24.0999 H    0  0  0  0  0  0  0  0  0  0  0  0
   10.4359    9.6261   22.6240 H    0  0  0  0  0  0  0  0  0  0  0  0
    6.4588   13.0088   26.7189 H    0  0  0  0  0  0  0  0  0  0  0  0
    5.7232    8.8744   26.4641 H    0  0  0  0  0  0  0  0  0  0  0  0
    7.4886    8.5878   24.7989 H    0  0  0  0  0  0  0  0  0  0  0  0
  9 10  1  0  0  0  0
  7  9  1  0  0  0  0
  6  7  1  0  0  0  0
  5  6  1  0  0  0  0
  4  5  1  0  0  0  0
  2  4  1  0  0  0  0
  1  2  2  0  0  0  0
  3  2  1  0  0  0  0
 21  3  1  0  0  0  0
 22  3  1  0  0  0  0
 23  4  1  0  0  0  0
 24  5  1  0  0  0  0
 25  5  1  0  0  0  0
 26  6  1  0  0  0  0
 27  6  1  0  0  0  0
 28  7  1  0  0  0  0
 29  7  1  0  0  0  0
  8  4  1  0  0  0  0
 30  8  1  0  0  0  0
 31  8  1  0  0  0  0
 11 10  2  0  0  0  0
 12 10  1  0  0  0  0
 32 12  1  0  0  0  0
 33 12  1  0  0  0  0
 13 12  1  0  0  0  0
 14 13  1  0  0  0  0
 20 14  2  0  0  0  0
 15 14  1  0  0  0  0
 16 15  1  0  0  0  0
 34 16  1  0  0  0  0
 35 16  1  0  0  0  0
 36 16  1  0  0  0  0
 17 13  2  0  0  0  0
 37 17  1  0  0  0  0
 18 17  1  0  0  0  0
 19 18  2  0  0  0  0
 38 19  1  0  0  0  0
 39 20  1  0  0  0  0
  9  8  1  0  0  0  0
 20 19  1  0  0  0  0
M  END
>  <FittedScore>
-33.04

$$$$
