A71EV2A-x4315a_best-RMSD
  FITTED

 36 38     0  0  0  0  0  0  0999 V2000
   10.8550   14.5630   25.1223 O    0  0  0  0  0  0  0  0  0  0  0  0
   10.7400   14.8890   23.9568 C    0  0  0  0  0  0  0  0  0  0  0  0
   12.0007   15.3391   23.2009 C    0  0  0  0  0  0  0  0  0  0  0  0
   11.7552   15.9441   21.7970 C    0  0  0  0  0  0  0  0  0  0  0  0
    9.5569   14.7221   23.2623 N    0  0  0  0  0  0  0  0  0  0  0  0
    9.3892   15.0472   21.8222 C    0  0  0  0  0  0  0  0  0  0  0  0
   10.7229   15.0815   21.0469 C    0  0  0  0  0  0  0  0  0  0  0  0
   10.5260   15.5398   19.6129 C    0  0  0  0  0  0  0  0  0  0  0  0
    9.9243   16.5413   19.2795 O    0  0  0  0  0  0  0  0  0  0  0  0
   10.9023   14.6336   18.6995 N    0  0  0  0  0  0  0  0  0  0  0  0
    8.3352   14.1049   23.8543 C    0  0  0  0  0  0  0  0  0  0  0  0
    8.4166   12.5782   24.0017 C    0  0  0  0  0  0  0  0  0  0  0  0
    7.5434   11.9256   24.8904 C    0  0  0  0  0  0  0  0  0  0  0  0
    6.5761   12.4716   25.6928 O    0  0  0  0  0  0  0  0  0  0  0  0
    5.9889   11.3815   26.4556 C    0  0  0  0  0  0  0  0  0  0  0  0
    6.6738   10.1724   26.0193 O    0  0  0  0  0  0  0  0  0  0  0  0
    7.5715   10.5582   25.0638 C    0  0  0  0  0  0  0  0  0  0  0  0
    8.4427    9.7505   24.3334 C    0  0  0  0  0  0  0  0  0  0  0  0
    9.3443   10.3647   23.4512 C    0  0  0  0  0  0  0  0  0  0  0  0
    9.3316   11.7622   23.2842 C    0  0  0  0  0  0  0  0  0  0  0  0
   12.5468   16.0708   23.8019 H    0  0  0  0  0  0  0  0  0  0  0  0
   12.6589   14.4709   23.0943 H    0  0  0  0  0  0  0  0  0  0  0  0
   11.4094   16.9790   21.8857 H    0  0  0  0  0  0  0  0  0  0  0  0
   12.6936   15.9676   21.2360 H    0  0  0  0  0  0  0  0  0  0  0  0
    8.8841   16.0126   21.7465 H    0  0  0  0  0  0  0  0  0  0  0  0
    8.7548   14.3131   21.3186 H    0  0  0  0  0  0  0  0  0  0  0  0
   11.1036   14.0511   21.0607 H    0  0  0  0  0  0  0  0  0  0  0  0
   11.1604   13.6965   19.0032 H    0  0  0  0  0  0  0  0  0  0  0  0
   10.7775   14.8314   17.7183 H    0  0  0  0  0  0  0  0  0  0  0  0
    7.4333   14.3555   23.2847 H    0  0  0  0  0  0  0  0  0  0  0  0
    8.1714   14.5604   24.8352 H    0  0  0  0  0  0  0  0  0  0  0  0
    4.9177   11.3147   26.2524 H    0  0  0  0  0  0  0  0  0  0  0  0
    6.1601   11.5466   27.5221 H    0  0  0  0  0  0  0  0  0  0  0  0
    8.4435    8.6731   24.4679 H    0  0  0  0  0  0  0  0  0  0  0  0
   10.0510    9.7584   22.8905 H    0  0  0  0  0  0  0  0  0  0  0  0
   10.0425   12.1882   22.5815 H    0  0  0  0  0  0  0  0  0  0  0  0
  2  5  1  0  0  0  0
  3  2  1  0  0  0  0
 21  3  1  0  0  0  0
  1  2  2  0  0  0  0
 22  3  1  0  0  0  0
  4  3  1  0  0  0  0
 23  4  1  0  0  0  0
 24  4  1  0  0  0  0
  6  5  1  0  0  0  0
 25  6  1  0  0  0  0
 26  6  1  0  0  0  0
  7  4  1  0  0  0  0
  8  7  1  0  0  0  0
 27  7  1  0  0  0  0
  9  8  2  0  0  0  0
 10  8  1  0  0  0  0
 28 10  1  0  0  0  0
 29 10  1  0  0  0  0
 11  5  1  0  0  0  0
 30 11  1  0  0  0  0
 31 11  1  0  0  0  0
 12 11  1  0  0  0  0
 20 12  2  0  0  0  0
 13 12  1  0  0  0  0
 14 13  1  0  0  0  0
 15 14  1  0  0  0  0
 32 15  1  0  0  0  0
 33 15  1  0  0  0  0
 16 15  1  0  0  0  0
 17 13  2  0  0  0  0
 18 17  1  0  0  0  0
 34 18  1  0  0  0  0
 19 18  2  0  0  0  0
 35 19  1  0  0  0  0
 36 20  1  0  0  0  0
  7  6  1  0  0  0  0
 17 16  1  0  0  0  0
 20 19  1  0  0  0  0
M  END
>  <FittedScore>
-34.59

$$$$
