A71EV2A-x4315a_lowest-energy
  FITTED

 36 38     0  0  0  0  0  0  0999 V2000
   10.9654   14.6586   25.1584 O    0  0  0  0  0  0  0  0  0  0  0  0
   10.8148   14.9661   23.9920 C    0  0  0  0  0  0  0  0  0  0  0  0
   12.0309   15.5162   23.2280 C    0  0  0  0  0  0  0  0  0  0  0  0
   11.7507   16.0315   21.7948 C    0  0  0  0  0  0  0  0  0  0  0  0
    9.6303   14.7202   23.3298 N    0  0  0  0  0  0  0  0  0  0  0  0
    9.4227   15.0248   21.8857 C    0  0  0  0  0  0  0  0  0  0  0  0
   10.7450   15.1016   21.0759 C    0  0  0  0  0  0  0  0  0  0  0  0
   10.5025   15.5274   19.6275 C    0  0  0  0  0  0  0  0  0  0  0  0
    9.9162   16.5429   19.2949 O    0  0  0  0  0  0  0  0  0  0  0  0
   10.8295   14.6003   18.7092 N    0  0  0  0  0  0  0  0  0  0  0  0
    8.4416   14.0807   23.9727 C    0  0  0  0  0  0  0  0  0  0  0  0
    8.5245   12.5484   24.0689 C    0  0  0  0  0  0  0  0  0  0  0  0
    7.6289   11.8515   24.9025 C    0  0  0  0  0  0  0  0  0  0  0  0
    6.6224   12.3460   25.6975 O    0  0  0  0  0  0  0  0  0  0  0  0
    5.9890   11.2026   26.3456 C    0  0  0  0  0  0  0  0  0  0  0  0
    6.7185   10.0318   25.8838 O    0  0  0  0  0  0  0  0  0  0  0  0
    7.6550   10.4747   24.9950 C    0  0  0  0  0  0  0  0  0  0  0  0
    8.5437    9.7091   24.2427 C    0  0  0  0  0  0  0  0  0  0  0  0
    9.4649   10.3698   23.4176 C    0  0  0  0  0  0  0  0  0  0  0  0
    9.4612   11.7719   23.3336 C    0  0  0  0  0  0  0  0  0  0  0  0
   12.4866   16.3273   23.8029 H    0  0  0  0  0  0  0  0  0  0  0  0
   12.7875   14.7281   23.1668 H    0  0  0  0  0  0  0  0  0  0  0  0
   11.3613   17.0526   21.8399 H    0  0  0  0  0  0  0  0  0  0  0  0
   12.6889   16.0789   21.2356 H    0  0  0  0  0  0  0  0  0  0  0  0
    8.8833   15.9759   21.8158 H    0  0  0  0  0  0  0  0  0  0  0  0
    8.7874   14.2691   21.4128 H    0  0  0  0  0  0  0  0  0  0  0  0
   11.1835   14.0940   21.0962 H    0  0  0  0  0  0  0  0  0  0  0  0
   10.8043   14.8240   17.7246 H    0  0  0  0  0  0  0  0  0  0  0  0
   11.0809   13.6548   19.0010 H    0  0  0  0  0  0  0  0  0  0  0  0
    7.5165   14.3551   23.4559 H    0  0  0  0  0  0  0  0  0  0  0  0
    8.3260   14.5015   24.9761 H    0  0  0  0  0  0  0  0  0  0  0  0
    4.9369   11.1320   26.0538 H    0  0  0  0  0  0  0  0  0  0  0  0
    6.0750   11.3012   27.4314 H    0  0  0  0  0  0  0  0  0  0  0  0
    8.5357    8.6233   24.3062 H    0  0  0  0  0  0  0  0  0  0  0  0
   10.1812    9.7955   22.8353 H    0  0  0  0  0  0  0  0  0  0  0  0
   10.1929   12.2292   22.6736 H    0  0  0  0  0  0  0  0  0  0  0  0
  2  5  1  0  0  0  0
  3  2  1  0  0  0  0
 21  3  1  0  0  0  0
  1  2  2  0  0  0  0
 22  3  1  0  0  0  0
  4  3  1  0  0  0  0
 23  4  1  0  0  0  0
 24  4  1  0  0  0  0
  6  5  1  0  0  0  0
 25  6  1  0  0  0  0
 26  6  1  0  0  0  0
  7  4  1  0  0  0  0
  8  7  1  0  0  0  0
 27  7  1  0  0  0  0
  9  8  2  0  0  0  0
 10  8  1  0  0  0  0
 28 10  1  0  0  0  0
 29 10  1  0  0  0  0
 11  5  1  0  0  0  0
 30 11  1  0  0  0  0
 31 11  1  0  0  0  0
 12 11  1  0  0  0  0
 20 12  2  0  0  0  0
 13 12  1  0  0  0  0
 14 13  1  0  0  0  0
 15 14  1  0  0  0  0
 32 15  1  0  0  0  0
 33 15  1  0  0  0  0
 16 15  1  0  0  0  0
 17 13  2  0  0  0  0
 18 17  1  0  0  0  0
 34 18  1  0  0  0  0
 19 18  2  0  0  0  0
 35 19  1  0  0  0  0
 36 20  1  0  0  0  0
  7  6  1  0  0  0  0
 17 16  1  0  0  0  0
 20 19  1  0  0  0  0
M  END
>  <FittedScore>
-35.02

$$$$
