A71EV2A-x5992a_lowest-energy
  FITTED

 44 45     0  0  0  0  0  0  0999 V2000
    8.9849    8.7793   23.4290 C    0  0  0  0  0  0  0  0  0  0  0  0
    8.9268   10.4336   24.1833 S    0  0  0  0  0  0  0  0  0  0  0  0
    7.3542   10.6229   25.0303 C    0  0  0  0  0  0  0  0  0  0  0  0
    6.6056    9.4991   25.4285 C    0  0  0  0  0  0  0  0  0  0  0  0
    5.4062    9.6440   26.1362 C    0  0  0  0  0  0  0  0  0  0  0  0
    4.9278   10.9179   26.4534 C    0  0  0  0  0  0  0  0  0  0  0  0
    5.6488   12.0464   26.0531 C    0  0  0  0  0  0  0  0  0  0  0  0
    6.8612   11.9179   25.3448 C    0  0  0  0  0  0  0  0  0  0  0  0
    7.6444   13.1951   25.0131 C    0  0  0  0  0  0  0  0  0  0  0  0
    7.7748   13.5525   23.5133 C    0  0  0  0  0  0  0  0  0  0  0  0
    6.9936   13.0476   22.7250 O    0  0  0  0  0  0  0  0  0  0  0  0
    8.7778   14.4140   23.0866 N    0  0  0  0  0  0  0  0  0  0  0  0
    8.9420   14.8297   21.6513 C    0  0  0  0  0  0  0  0  0  0  0  0
    9.3902   16.3138   21.4273 C    0  0  0  0  0  0  0  0  0  0  0  0
    8.3095   17.3289   21.8403 C    0  0  0  0  0  0  0  0  0  0  0  0
    8.4534   18.5599   21.3131 N    0  0  0  0  0  0  0  0  0  0  0  0
    7.3646   17.0774   22.5703 O    0  0  0  0  0  0  0  0  0  0  0  0
   10.7205   16.5845   22.1864 C    0  0  0  0  0  0  0  0  0  0  0  0
   10.5357   16.2950   23.6913 C    0  0  0  0  0  0  0  0  0  0  0  0
    9.9060   14.8932   23.9689 C    0  0  0  0  0  0  0  0  0  0  0  0
   11.0159   13.8120   24.0577 C    0  0  0  0  0  0  0  0  0  0  0  0
   11.3913   13.6911   25.4226 O    0  0  0  0  0  0  0  0  0  0  0  0
    9.8676    8.7177   22.7876 H    0  0  0  0  0  0  0  0  0  0  0  0
    8.0939    8.6151   22.8144 H    0  0  0  0  0  0  0  0  0  0  0  0
    9.0515    8.0014   24.1943 H    0  0  0  0  0  0  0  0  0  0  0  0
    6.9504    8.4941   25.2161 H    0  0  0  0  0  0  0  0  0  0  0  0
    4.8506    8.7640   26.4478 H    0  0  0  0  0  0  0  0  0  0  0  0
    4.0043   11.0279   27.0136 H    0  0  0  0  0  0  0  0  0  0  0  0
    5.2593   13.0280   26.3145 H    0  0  0  0  0  0  0  0  0  0  0  0
    8.6135   13.0595   25.4906 H    0  0  0  0  0  0  0  0  0  0  0  0
    7.2042   14.0634   25.5128 H    0  0  0  0  0  0  0  0  0  0  0  0
    8.0171   14.6839   21.0845 H    0  0  0  0  0  0  0  0  0  0  0  0
    9.6706   14.1573   21.1847 H    0  0  0  0  0  0  0  0  0  0  0  0
    9.5929   16.4270   20.3565 H    0  0  0  0  0  0  0  0  0  0  0  0
    9.1833   18.7455   20.6440 H    0  0  0  0  0  0  0  0  0  0  0  0
    7.7020   19.2325   21.4118 H    0  0  0  0  0  0  0  0  0  0  0  0
   11.0366   17.6247   22.0545 H    0  0  0  0  0  0  0  0  0  0  0  0
   11.5259   15.9661   21.7781 H    0  0  0  0  0  0  0  0  0  0  0  0
    9.9001   17.0691   24.1383 H    0  0  0  0  0  0  0  0  0  0  0  0
   11.4973   16.4027   24.2005 H    0  0  0  0  0  0  0  0  0  0  0  0
    9.4724   15.0726   24.9564 H    0  0  0  0  0  0  0  0  0  0  0  0
   11.8944   14.0691   23.4569 H    0  0  0  0  0  0  0  0  0  0  0  0
   10.6741   12.8366   23.7011 H    0  0  0  0  0  0  0  0  0  0  0  0
   12.1787   13.1118   25.4723 H    0  0  0  0  0  0  0  0  0  0  0  0
  9 10  1  0  0  0  0
  8  9  1  0  0  0  0
  7  8  2  0  0  0  0
  6  7  1  0  0  0  0
  5  6  2  0  0  0  0
  4  5  1  0  0  0  0
  3  4  2  0  0  0  0
  2  3  1  0  0  0  0
  1  2  1  0  0  0  0
 23  1  1  0  0  0  0
 24  1  1  0  0  0  0
 25  1  1  0  0  0  0
 26  4  1  0  0  0  0
 27  5  1  0  0  0  0
 28  6  1  0  0  0  0
 29  7  1  0  0  0  0
 30  9  1  0  0  0  0
 31  9  1  0  0  0  0
 11 10  2  0  0  0  0
 12 10  1  0  0  0  0
 13 12  1  0  0  0  0
 14 13  1  0  0  0  0
 32 13  1  0  0  0  0
 33 13  1  0  0  0  0
 15 14  1  0  0  0  0
 18 14  1  0  0  0  0
 34 14  1  0  0  0  0
 16 15  1  0  0  0  0
 17 15  2  0  0  0  0
 35 16  1  0  0  0  0
 36 16  1  0  0  0  0
 19 18  1  0  0  0  0
 37 18  1  0  0  0  0
 38 18  1  0  0  0  0
 20 19  1  0  0  0  0
 39 19  1  0  0  0  0
 40 19  1  0  0  0  0
 21 20  1  0  0  0  0
 41 20  1  0  0  0  0
 22 21  1  0  0  0  0
 42 21  1  0  0  0  0
 43 21  1  0  0  0  0
 44 22  1  0  0  0  0
  8  3  1  0  0  0  0
 20 12  1  0  0  0  0
M  END
>  <FittedScore>
-34.11

$$$$
