A71EV2A-x5992a_best-RMSD
  FITTED

 44 45     0  0  0  0  0  0  0999 V2000
    9.1140    8.7080   23.4289 C    0  0  0  0  0  0  0  0  0  0  0  0
    9.2709   10.4304   23.9859 S    0  0  0  0  0  0  0  0  0  0  0  0
    7.6897   10.8873   24.6769 C    0  0  0  0  0  0  0  0  0  0  0  0
    7.0127    9.9672   25.5027 C    0  0  0  0  0  0  0  0  0  0  0  0
    5.8233   10.3191   26.1460 C    0  0  0  0  0  0  0  0  0  0  0  0
    5.2818   11.5940   25.9660 C    0  0  0  0  0  0  0  0  0  0  0  0
    5.9264   12.5116   25.1274 C    0  0  0  0  0  0  0  0  0  0  0  0
    7.1246   12.1736   24.4589 C    0  0  0  0  0  0  0  0  0  0  0  0
    7.7538   13.2412   23.5351 C    0  0  0  0  0  0  0  0  0  0  0  0
    8.6039   14.3121   24.2521 C    0  0  0  0  0  0  0  0  0  0  0  0
    8.4372   14.4518   25.4457 O    0  0  0  0  0  0  0  0  0  0  0  0
    9.4116   15.1745   23.5147 N    0  0  0  0  0  0  0  0  0  0  0  0
    9.1820   15.4642   22.0514 C    0  0  0  0  0  0  0  0  0  0  0  0
   10.4824   15.4068   21.1912 C    0  0  0  0  0  0  0  0  0  0  0  0
   10.2334   15.7382   19.7280 C    0  0  0  0  0  0  0  0  0  0  0  0
   10.7213   14.8493   18.8473 N    0  0  0  0  0  0  0  0  0  0  0  0
    9.6721   16.7548   19.3660 O    0  0  0  0  0  0  0  0  0  0  0  0
   11.5838   16.3523   21.7398 C    0  0  0  0  0  0  0  0  0  0  0  0
   11.8009   16.0719   23.2379 C    0  0  0  0  0  0  0  0  0  0  0  0
   10.4676   16.1406   24.0656 C    0  0  0  0  0  0  0  0  0  0  0  0
   10.8510   16.1230   25.5756 C    0  0  0  0  0  0  0  0  0  0  0  0
   11.4018   14.8573   25.9467 O    0  0  0  0  0  0  0  0  0  0  0  0
    9.0154    8.0280   24.2779 H    0  0  0  0  0  0  0  0  0  0  0  0
   10.0143    8.4299   22.8815 H    0  0  0  0  0  0  0  0  0  0  0  0
    8.2501    8.6100   22.7663 H    0  0  0  0  0  0  0  0  0  0  0  0
    7.4146    8.9740   25.6853 H    0  0  0  0  0  0  0  0  0  0  0  0
    5.3258    9.6004   26.7936 H    0  0  0  0  0  0  0  0  0  0  0  0
    4.3605   11.8738   26.4725 H    0  0  0  0  0  0  0  0  0  0  0  0
    5.4888   13.4985   24.9995 H    0  0  0  0  0  0  0  0  0  0  0  0
    6.9348   13.7549   23.0188 H    0  0  0  0  0  0  0  0  0  0  0  0
    8.3277   12.7638   22.7364 H    0  0  0  0  0  0  0  0  0  0  0  0
    8.7398   16.4622   21.9740 H    0  0  0  0  0  0  0  0  0  0  0  0
    8.4575   14.8016   21.5820 H    0  0  0  0  0  0  0  0  0  0  0  0
   10.8592   14.3796   21.2725 H    0  0  0  0  0  0  0  0  0  0  0  0
   10.6602   15.0417   17.8534 H    0  0  0  0  0  0  0  0  0  0  0  0
   11.0682   13.9449   19.1659 H    0  0  0  0  0  0  0  0  0  0  0  0
   11.3101   17.4024   21.5967 H    0  0  0  0  0  0  0  0  0  0  0  0
   12.5260   16.1879   21.2038 H    0  0  0  0  0  0  0  0  0  0  0  0
   12.5259   16.8100   23.6025 H    0  0  0  0  0  0  0  0  0  0  0  0
   12.2837   15.0917   23.3511 H    0  0  0  0  0  0  0  0  0  0  0  0
   10.0624   17.1491   23.9143 H    0  0  0  0  0  0  0  0  0  0  0  0
    9.9955   16.3634   26.2003 H    0  0  0  0  0  0  0  0  0  0  0  0
   11.5863   16.9012   25.7944 H    0  0  0  0  0  0  0  0  0  0  0  0
   10.6669   14.2378   26.1147 H    0  0  0  0  0  0  0  0  0  0  0  0
  9 10  1  0  0  0  0
  8  9  1  0  0  0  0
  7  8  2  0  0  0  0
  6  7  1  0  0  0  0
  5  6  2  0  0  0  0
  4  5  1  0  0  0  0
  3  4  2  0  0  0  0
  2  3  1  0  0  0  0
  1  2  1  0  0  0  0
 23  1  1  0  0  0  0
 24  1  1  0  0  0  0
 25  1  1  0  0  0  0
 26  4  1  0  0  0  0
 27  5  1  0  0  0  0
 28  6  1  0  0  0  0
 29  7  1  0  0  0  0
 30  9  1  0  0  0  0
 31  9  1  0  0  0  0
 11 10  2  0  0  0  0
 12 10  1  0  0  0  0
 13 12  1  0  0  0  0
 14 13  1  0  0  0  0
 32 13  1  0  0  0  0
 33 13  1  0  0  0  0
 15 14  1  0  0  0  0
 18 14  1  0  0  0  0
 34 14  1  0  0  0  0
 16 15  1  0  0  0  0
 17 15  2  0  0  0  0
 35 16  1  0  0  0  0
 36 16  1  0  0  0  0
 19 18  1  0  0  0  0
 37 18  1  0  0  0  0
 38 18  1  0  0  0  0
 20 19  1  0  0  0  0
 39 19  1  0  0  0  0
 40 19  1  0  0  0  0
 21 20  1  0  0  0  0
 41 20  1  0  0  0  0
 22 21  1  0  0  0  0
 42 21  1  0  0  0  0
 43 21  1  0  0  0  0
 44 22  1  0  0  0  0
  8  3  1  0  0  0  0
 20 12  1  0  0  0  0
M  END
>  <FittedScore>
-30.81

$$$$
