A71EV2A-x6746a_lowest-energy
  FITTED

 49 52     0  0  0  0  0  0  0999 V2000
    5.5332   10.1566   27.4578 C    0  0  0  0  0  0  0  0  0  0  0  0
    5.5444    9.9159   25.6799 S    0  0  0  0  0  0  0  0  0  0  0  0
    6.8389   10.9898   25.1130 C    0  0  0  0  0  0  0  0  0  0  0  0
    8.0953   10.4290   24.8249 C    0  0  0  0  0  0  0  0  0  0  0  0
    9.1574   11.2565   24.4136 C    0  0  0  0  0  0  0  0  0  0  0  0
    8.9631   12.6414   24.2623 C    0  0  0  0  0  0  0  0  0  0  0  0
   10.0480   13.6006   23.9402 C    0  0  0  0  0  0  0  0  0  0  0  0
   10.2754   14.0010   22.5999 C    0  0  0  0  0  0  0  0  0  0  0  0
   11.1393   15.0729   22.3352 C    0  0  0  0  0  0  0  0  0  0  0  0
   11.7889   15.7269   23.3292 N    0  0  0  0  0  0  0  0  0  0  0  0
   11.6051   15.3181   24.6112 C    0  0  0  0  0  0  0  0  0  0  0  0
   10.7671   14.2594   24.9564 C    0  0  0  0  0  0  0  0  0  0  0  0
    7.7167   13.1711   24.5460 C    0  0  0  0  0  0  0  0  0  0  0  0
    6.6617   12.3884   25.0062 C    0  0  0  0  0  0  0  0  0  0  0  0
    5.4611   13.0637   25.3854 N    0  0  0  0  0  0  0  0  0  0  0  0
    5.3710   14.2674   26.0470 C    0  0  0  0  0  0  0  0  0  0  0  0
    6.3016   15.0301   26.1899 O    0  0  0  0  0  0  0  0  0  0  0  0
    4.2176   14.4460   26.7684 N    0  0  0  0  0  0  0  0  0  0  0  0
    3.0589   13.5381   26.9380 C    0  0  0  0  0  0  0  0  0  0  0  0
    1.6316   14.1722   26.7305 C    0  0  0  0  0  0  0  0  0  0  0  0
    0.5468   13.1875   27.0961 C    0  0  0  0  0  0  0  0  0  0  0  0
    0.5971   12.7331   28.3362 N    0  0  0  0  0  0  0  0  0  0  0  0
   -0.3715   12.8470   26.3928 O    0  0  0  0  0  0  0  0  0  0  0  0
    1.3983   15.5284   27.5441 C    0  0  0  0  0  0  0  0  0  0  0  0
    2.6101   16.4295   27.4555 C    0  0  0  0  0  0  0  0  0  0  0  0
    3.3767   16.5723   26.2224 C    0  0  0  0  0  0  0  0  0  0  0  0
    3.9508   15.8070   27.3755 C    0  0  0  0  0  0  0  0  0  0  0  0
    4.6881    9.6213   27.8944 H    0  0  0  0  0  0  0  0  0  0  0  0
    5.4749   11.2253   27.6525 H    0  0  0  0  0  0  0  0  0  0  0  0
    6.4407    9.7454   27.9053 H    0  0  0  0  0  0  0  0  0  0  0  0
    8.2761    9.3628   24.9485 H    0  0  0  0  0  0  0  0  0  0  0  0
   10.1453   10.8111   24.2485 H    0  0  0  0  0  0  0  0  0  0  0  0
    9.7219   13.5405   21.7750 H    0  0  0  0  0  0  0  0  0  0  0  0
   11.2626   15.3979   21.3068 H    0  0  0  0  0  0  0  0  0  0  0  0
   12.0974   15.8648   25.4135 H    0  0  0  0  0  0  0  0  0  0  0  0
   10.6134   14.0010   25.9949 H    0  0  0  0  0  0  0  0  0  0  0  0
    7.6090   14.2273   24.4084 H    0  0  0  0  0  0  0  0  0  0  0  0
    4.6624   12.4627   25.4191 H    0  0  0  0  0  0  0  0  0  0  0  0
    3.1903   13.2319   27.9592 H    0  0  0  0  0  0  0  0  0  0  0  0
    3.1490   12.6622   26.2903 H    0  0  0  0  0  0  0  0  0  0  0  0
    1.4825   14.3939   25.6666 H    0  0  0  0  0  0  0  0  0  0  0  0
   -0.0748   12.0574   28.6491 H    0  0  0  0  0  0  0  0  0  0  0  0
    1.3472   13.1067   28.9283 H    0  0  0  0  0  0  0  0  0  0  0  0
    1.2461   15.3056   28.6135 H    0  0  0  0  0  0  0  0  0  0  0  0
    0.4732   16.0195   27.1897 H    0  0  0  0  0  0  0  0  0  0  0  0
    2.4555   17.3699   27.9541 H    0  0  0  0  0  0  0  0  0  0  0  0
    3.7924   17.5285   26.0397 H    0  0  0  0  0  0  0  0  0  0  0  0
    3.0141   16.0305   25.3579 H    0  0  0  0  0  0  0  0  0  0  0  0
    4.9065   16.2132   27.7289 H    0  0  0  0  0  0  0  0  0  0  0  0
 14 15  1  0  0  0  0
 13 14  2  0  0  0  0
  6 13  1  0  0  0  0
  5  6  2  0  0  0  0
  4  5  1  0  0  0  0
  3  4  2  0  0  0  0
  2  3  1  0  0  0  0
  1  2  1  0  0  0  0
 28  1  1  0  0  0  0
 29  1  1  0  0  0  0
 30  1  1  0  0  0  0
 31  4  1  0  0  0  0
 32  5  1  0  0  0  0
  7  6  1  0  0  0  0
  8  7  2  0  0  0  0
  9  8  1  0  0  0  0
 33  8  1  0  0  0  0
 10  9  2  0  0  0  0
 34  9  1  0  0  0  0
 11 10  1  0  0  0  0
 12 11  2  0  0  0  0
 35 11  1  0  0  0  0
 36 12  1  0  0  0  0
 37 13  1  0  0  0  0
 16 15  1  0  0  0  0
 38 15  1  0  0  0  0
 17 16  2  0  0  0  0
 18 16  1  0  0  0  0
 19 18  1  0  0  0  0
 20 19  1  0  0  0  0
 39 19  1  0  0  0  0
 40 19  1  0  0  0  0
 21 20  1  0  0  0  0
 24 20  1  0  0  0  0
 41 20  1  0  0  0  0
 22 21  1  0  0  0  0
 23 21  2  0  0  0  0
 42 22  1  0  0  0  0
 43 22  1  0  0  0  0
 44 24  1  0  0  0  0
 45 24  1  0  0  0  0
 25 24  1  0  0  0  0
 26 25  1  0  0  0  0
 46 25  1  0  0  0  0
 47 26  1  0  0  0  0
 48 26  1  0  0  0  0
 27 26  1  0  0  0  0
 49 27  1  0  0  0  0
 12  7  1  0  0  0  0
 14  3  1  0  0  0  0
 27 18  1  0  0  0  0
 27 25  1  0  0  0  0
M  END
>  <FittedScore>
-20.45

$$$$
