A71EV2A-x7461a_lowest-energy
  FITTED

 44 47     0  0  0  0  0  0  0999 V2000
    3.3957   13.1904   26.4003 C    0  0  0  0  0  0  0  0  0  0  0  0
    5.1511   13.6938   26.4933 S    0  0  0  0  0  0  0  0  0  0  0  0
    5.9827   12.2458   25.8638 C    0  0  0  0  0  0  0  0  0  0  0  0
    5.5446   11.0084   26.3461 C    0  0  0  0  0  0  0  0  0  0  0  0
    6.1377    9.8335   25.8999 C    0  0  0  0  0  0  0  0  0  0  0  0
    7.2036    9.8722   24.9900 C    0  0  0  0  0  0  0  0  0  0  0  0
    7.7516    8.7019   24.5954 N    0  0  0  0  0  0  0  0  0  0  0  0
    8.8168    8.6528   23.7651 C    0  0  0  0  0  0  0  0  0  0  0  0
    9.3861    9.8178   23.2718 C    0  0  0  0  0  0  0  0  0  0  0  0
    8.8159   11.0467   23.6236 C    0  0  0  0  0  0  0  0  0  0  0  0
    7.7003   11.1095   24.5087 C    0  0  0  0  0  0  0  0  0  0  0  0
    7.0498   12.3062   24.9397 C    0  0  0  0  0  0  0  0  0  0  0  0
    7.4699   13.5599   24.5562 O    0  0  0  0  0  0  0  0  0  0  0  0
    7.6336   13.9738   23.2775 C    0  0  0  0  0  0  0  0  0  0  0  0
    7.0667   13.4062   22.3545 O    0  0  0  0  0  0  0  0  0  0  0  0
    8.6765   14.8635   23.0922 N    0  0  0  0  0  0  0  0  0  0  0  0
    8.7927   15.6341   21.8093 C    0  0  0  0  0  0  0  0  0  0  0  0
    9.9788   15.1078   20.9285 C    0  0  0  0  0  0  0  0  0  0  0  0
   10.1995   15.6834   19.5357 C    0  0  0  0  0  0  0  0  0  0  0  0
   10.8538   14.8382   18.7070 N    0  0  0  0  0  0  0  0  0  0  0  0
    9.9352   16.8029   19.1948 O    0  0  0  0  0  0  0  0  0  0  0  0
   11.3113   15.2458   21.6923 C    0  0  0  0  0  0  0  0  0  0  0  0
   11.1775   14.5179   23.0150 C    0  0  0  0  0  0  0  0  0  0  0  0
   11.1939   15.3908   24.2253 C    0  0  0  0  0  0  0  0  0  0  0  0
    9.9632   14.6014   23.8925 C    0  0  0  0  0  0  0  0  0  0  0  0
    2.7443   14.0420   26.5665 H    0  0  0  0  0  0  0  0  0  0  0  0
    3.1781   12.4497   27.1757 H    0  0  0  0  0  0  0  0  0  0  0  0
    3.1848   12.7856   25.4065 H    0  0  0  0  0  0  0  0  0  0  0  0
    4.7415   10.9521   27.0765 H    0  0  0  0  0  0  0  0  0  0  0  0
    5.7724    8.8819   26.2843 H    0  0  0  0  0  0  0  0  0  0  0  0
    9.2388    7.6854   23.4936 H    0  0  0  0  0  0  0  0  0  0  0  0
   10.2406    9.7699   22.6037 H    0  0  0  0  0  0  0  0  0  0  0  0
    9.2508   11.9021   23.1416 H    0  0  0  0  0  0  0  0  0  0  0  0
    8.9679   16.6876   22.0564 H    0  0  0  0  0  0  0  0  0  0  0  0
    7.8519   15.6239   21.2548 H    0  0  0  0  0  0  0  0  0  0  0  0
    9.7903   14.0455   20.7671 H    0  0  0  0  0  0  0  0  0  0  0  0
   11.0015   15.0737   17.7494 H    0  0  0  0  0  0  0  0  0  0  0  0
   11.1107   13.9413   19.0690 H    0  0  0  0  0  0  0  0  0  0  0  0
   11.5952   16.3000   21.7769 H    0  0  0  0  0  0  0  0  0  0  0  0
   12.1038   14.7491   21.1428 H    0  0  0  0  0  0  0  0  0  0  0  0
   11.6595   13.5480   23.0052 H    0  0  0  0  0  0  0  0  0  0  0  0
   11.1851   16.4656   24.0966 H    0  0  0  0  0  0  0  0  0  0  0  0
   11.8684   15.0358   24.9998 H    0  0  0  0  0  0  0  0  0  0  0  0
    9.7576   13.7811   24.5592 H    0  0  0  0  0  0  0  0  0  0  0  0
 13 14  1  0  0  0  0
 12 13  1  0  0  0  0
 11 12  2  0  0  0  0
 10 11  1  0  0  0  0
  9 10  2  0  0  0  0
  8  9  1  0  0  0  0
  7  8  2  0  0  0  0
  6  7  1  0  0  0  0
  5  6  2  0  0  0  0
  4  5  1  0  0  0  0
  3  4  2  0  0  0  0
  2  3  1  0  0  0  0
  1  2  1  0  0  0  0
 26  1  1  0  0  0  0
 27  1  1  0  0  0  0
 28  1  1  0  0  0  0
 29  4  1  0  0  0  0
 30  5  1  0  0  0  0
 31  8  1  0  0  0  0
 32  9  1  0  0  0  0
 33 10  1  0  0  0  0
 15 14  2  0  0  0  0
 16 14  1  0  0  0  0
 17 16  1  0  0  0  0
 18 17  1  0  0  0  0
 34 17  1  0  0  0  0
 35 17  1  0  0  0  0
 19 18  1  0  0  0  0
 22 18  1  0  0  0  0
 36 18  1  0  0  0  0
 20 19  1  0  0  0  0
 21 19  2  0  0  0  0
 37 20  1  0  0  0  0
 38 20  1  0  0  0  0
 39 22  1  0  0  0  0
 40 22  1  0  0  0  0
 23 22  1  0  0  0  0
 24 23  1  0  0  0  0
 41 23  1  0  0  0  0
 42 24  1  0  0  0  0
 43 24  1  0  0  0  0
 25 24  1  0  0  0  0
 44 25  1  0  0  0  0
 11  6  1  0  0  0  0
 12  3  1  0  0  0  0
 25 16  1  0  0  0  0
 25 23  1  0  0  0  0
M  END
>  <FittedScore>
-36.13

$$$$
