A71EV2A-x7461a_best-RMSD
  FITTED

 44 47     0  0  0  0  0  0  0999 V2000
    9.2029    8.5895   23.7655 C    0  0  0  0  0  0  0  0  0  0  0  0
    8.5224   10.2011   23.5690 S    0  0  0  0  0  0  0  0  0  0  0  0
    7.3129   10.7033   24.8223 C    0  0  0  0  0  0  0  0  0  0  0  0
    6.5700    9.7733   25.5329 C    0  0  0  0  0  0  0  0  0  0  0  0
    5.4753   10.1902   26.3364 C    0  0  0  0  0  0  0  0  0  0  0  0
    5.0737   11.5522   26.3835 C    0  0  0  0  0  0  0  0  0  0  0  0
    3.9432   11.9702   27.0266 N    0  0  0  0  0  0  0  0  0  0  0  0
    3.5064   13.2531   26.9619 C    0  0  0  0  0  0  0  0  0  0  0  0
    4.2052   14.2438   26.2727 C    0  0  0  0  0  0  0  0  0  0  0  0
    5.4047   13.8661   25.6463 C    0  0  0  0  0  0  0  0  0  0  0  0
    5.8275   12.5139   25.6971 C    0  0  0  0  0  0  0  0  0  0  0  0
    6.9680   12.0639   25.0084 C    0  0  0  0  0  0  0  0  0  0  0  0
    7.6896   13.0891   24.4386 O    0  0  0  0  0  0  0  0  0  0  0  0
    7.8326   13.3580   23.1202 C    0  0  0  0  0  0  0  0  0  0  0  0
    6.9685   13.1095   22.3100 O    0  0  0  0  0  0  0  0  0  0  0  0
    9.1306   13.6115   22.8099 N    0  0  0  0  0  0  0  0  0  0  0  0
   10.2325   13.4378   23.8500 C    0  0  0  0  0  0  0  0  0  0  0  0
   10.3076   14.8388   24.5566 C    0  0  0  0  0  0  0  0  0  0  0  0
   10.9235   14.8685   25.9581 C    0  0  0  0  0  0  0  0  0  0  0  0
   10.1559   15.3141   26.9802 N    0  0  0  0  0  0  0  0  0  0  0  0
   11.8947   14.1851   26.2402 O    0  0  0  0  0  0  0  0  0  0  0  0
   11.0067   15.7041   23.4812 C    0  0  0  0  0  0  0  0  0  0  0  0
   10.0477   15.7738   22.2710 C    0  0  0  0  0  0  0  0  0  0  0  0
   10.3578   15.2188   20.9070 C    0  0  0  0  0  0  0  0  0  0  0  0
    9.2357   14.6690   21.7287 C    0  0  0  0  0  0  0  0  0  0  0  0
    9.3306    8.4214   24.8812 H    0  0  0  0  0  0  0  0  0  0  0  0
   10.1378    8.5111   23.2389 H    0  0  0  0  0  0  0  0  0  0  0  0
    8.5609    7.8780   23.2851 H    0  0  0  0  0  0  0  0  0  0  0  0
    6.8276    8.7243   25.4426 H    0  0  0  0  0  0  0  0  0  0  0  0
    4.9113    9.4285   26.8565 H    0  0  0  0  0  0  0  0  0  0  0  0
    2.5601   13.5285   27.4339 H    0  0  0  0  0  0  0  0  0  0  0  0
    3.8377   15.2596   26.2024 H    0  0  0  0  0  0  0  0  0  0  0  0
    5.9480   14.6497   25.0992 H    0  0  0  0  0  0  0  0  0  0  0  0
   11.1709   13.1260   23.3961 H    0  0  0  0  0  0  0  0  0  0  0  0
   10.0452   12.6834   24.6065 H    0  0  0  0  0  0  0  0  0  0  0  0
    9.2839   15.2264   24.6934 H    0  0  0  0  0  0  0  0  0  0  0  0
    9.1519   15.5012   26.8403 H    0  0  0  0  0  0  0  0  0  0  0  0
   10.6019   15.5972   27.8516 H    0  0  0  0  0  0  0  0  0  0  0  0
   11.9976   15.3486   23.2272 H    0  0  0  0  0  0  0  0  0  0  0  0
   11.1634   16.7278   23.8430 H    0  0  0  0  0  0  0  0  0  0  0  0
    9.4751   16.7026   22.3365 H    0  0  0  0  0  0  0  0  0  0  0  0
   11.2255   14.5861   20.7038 H    0  0  0  0  0  0  0  0  0  0  0  0
   10.0308   15.8386   20.0636 H    0  0  0  0  0  0  0  0  0  0  0  0
    8.2176   15.0418   21.5660 H    0  0  0  0  0  0  0  0  0  0  0  0
 13 14  1  0  0  0  0
 12 13  1  0  0  0  0
 11 12  2  0  0  0  0
 10 11  1  0  0  0  0
  9 10  2  0  0  0  0
  8  9  1  0  0  0  0
  7  8  2  0  0  0  0
  6  7  1  0  0  0  0
  5  6  2  0  0  0  0
  4  5  1  0  0  0  0
  3  4  2  0  0  0  0
  2  3  1  0  0  0  0
  1  2  1  0  0  0  0
 26  1  1  0  0  0  0
 27  1  1  0  0  0  0
 28  1  1  0  0  0  0
 29  4  1  0  0  0  0
 30  5  1  0  0  0  0
 31  8  1  0  0  0  0
 32  9  1  0  0  0  0
 33 10  1  0  0  0  0
 15 14  2  0  0  0  0
 16 14  1  0  0  0  0
 17 16  1  0  0  0  0
 18 17  1  0  0  0  0
 34 17  1  0  0  0  0
 35 17  1  0  0  0  0
 19 18  1  0  0  0  0
 22 18  1  0  0  0  0
 36 18  1  0  0  0  0
 20 19  1  0  0  0  0
 21 19  2  0  0  0  0
 37 20  1  0  0  0  0
 38 20  1  0  0  0  0
 39 22  1  0  0  0  0
 40 22  1  0  0  0  0
 23 22  1  0  0  0  0
 24 23  1  0  0  0  0
 41 23  1  0  0  0  0
 42 24  1  0  0  0  0
 43 24  1  0  0  0  0
 25 24  1  0  0  0  0
 44 25  1  0  0  0  0
 11  6  1  0  0  0  0
 12  3  1  0  0  0  0
 25 16  1  0  0  0  0
 25 23  1  0  0  0  0
M  END
>  <FittedScore>
-24.99

$$$$
