A71EV2A-x3176a_best-RMSD
  FITTED

 35 36     0  0  0  0  0  0  0999 V2000
    8.5507   14.6427   24.1067 O    0  0  0  0  0  0  0  0  0  0  0  0
    9.2025   13.7314   23.6370 C    0  0  0  0  0  0  0  0  0  0  0  0
   10.3542   13.9367   22.9502 N    0  0  0  0  0  0  0  0  0  0  0  0
   11.0575   15.2285   22.8227 C    0  0  0  0  0  0  0  0  0  0  0  0
   12.1265   15.3564   23.9283 C    0  0  0  0  0  0  0  0  0  0  0  0
   11.6737   15.4105   21.4227 C    0  0  0  0  0  0  0  0  0  0  0  0
   10.6052   15.4143   20.4434 O    0  0  0  0  0  0  0  0  0  0  0  0
   11.0050   15.2629   19.0695 C    0  0  0  0  0  0  0  0  0  0  0  0
    8.8280   12.3751   23.8668 C    0  0  0  0  0  0  0  0  0  0  0  0
    7.7519   11.8914   24.7725 C    0  0  0  0  0  0  0  0  0  0  0  0
    7.7536   10.5162   24.6705 C    0  0  0  0  0  0  0  0  0  0  0  0
    8.7438   10.2010   23.7947 N    0  0  0  0  0  0  0  0  0  0  0  0
    9.1374    8.8778   23.3100 C    0  0  0  0  0  0  0  0  0  0  0  0
    9.3761   11.3203   23.3339 N    0  0  0  0  0  0  0  0  0  0  0  0
    6.8741   12.5462   25.6502 C    0  0  0  0  0  0  0  0  0  0  0  0
    5.9847   11.7680   26.4122 C    0  0  0  0  0  0  0  0  0  0  0  0
    5.9721   10.3634   26.2843 C    0  0  0  0  0  0  0  0  0  0  0  0
    6.8568    9.7216   25.3947 C    0  0  0  0  0  0  0  0  0  0  0  0
   10.7981   13.1229   22.5408 H    0  0  0  0  0  0  0  0  0  0  0  0
   10.3625   16.0617   22.9609 H    0  0  0  0  0  0  0  0  0  0  0  0
   11.6694   15.3065   24.9219 H    0  0  0  0  0  0  0  0  0  0  0  0
   12.6576   16.3134   23.8586 H    0  0  0  0  0  0  0  0  0  0  0  0
   12.8695   14.5528   23.8558 H    0  0  0  0  0  0  0  0  0  0  0  0
   12.2158   16.3579   21.3527 H    0  0  0  0  0  0  0  0  0  0  0  0
   12.3745   14.5912   21.2154 H    0  0  0  0  0  0  0  0  0  0  0  0
   11.7056   16.0525   18.7883 H    0  0  0  0  0  0  0  0  0  0  0  0
   10.1226   15.3240   18.4315 H    0  0  0  0  0  0  0  0  0  0  0  0
   11.4686   14.2824   18.9356 H    0  0  0  0  0  0  0  0  0  0  0  0
    9.7365    8.3538   24.0579 H    0  0  0  0  0  0  0  0  0  0  0  0
    9.7352    8.9276   22.3948 H    0  0  0  0  0  0  0  0  0  0  0  0
    8.2706    8.2528   23.0824 H    0  0  0  0  0  0  0  0  0  0  0  0
    6.8749   13.6258   25.7607 H    0  0  0  0  0  0  0  0  0  0  0  0
    5.3011   12.2606   27.1001 H    0  0  0  0  0  0  0  0  0  0  0  0
    5.2743    9.7716   26.8759 H    0  0  0  0  0  0  0  0  0  0  0  0
    6.8490    8.6406   25.2910 H    0  0  0  0  0  0  0  0  0  0  0  0
  2  9  1  0  0  0  0
  3  2  1  0  0  0  0
 19  3  1  0  0  0  0
  1  2  2  0  0  0  0
  4  3  1  0  0  0  0
  5  4  1  0  0  0  0
 20  4  1  0  0  0  0
 21  5  1  0  0  0  0
 22  5  1  0  0  0  0
 23  5  1  0  0  0  0
  6  4  1  0  0  0  0
 24  6  1  0  0  0  0
 25  6  1  0  0  0  0
  7  6  1  0  0  0  0
  8  7  1  0  0  0  0
 26  8  1  0  0  0  0
 27  8  1  0  0  0  0
 28  8  1  0  0  0  0
 14  9  2  0  0  0  0
 10  9  1  0  0  0  0
 11 10  1  0  0  0  0
 18 11  2  0  0  0  0
 12 11  1  0  0  0  0
 13 12  1  0  0  0  0
 29 13  1  0  0  0  0
 30 13  1  0  0  0  0
 31 13  1  0  0  0  0
 15 10  2  0  0  0  0
 32 15  1  0  0  0  0
 16 15  1  0  0  0  0
 33 16  1  0  0  0  0
 17 16  2  0  0  0  0
 34 17  1  0  0  0  0
 35 18  1  0  0  0  0
 14 12  1  0  0  0  0
 18 17  1  0  0  0  0
M  END
>  <FittedScore>
-26.90

$$$$
