A71EV2A-x3176a_lowest-energy
  FITTED

 35 36     0  0  0  0  0  0  0999 V2000
    8.5868   14.7600   24.0239 O    0  0  0  0  0  0  0  0  0  0  0  0
    9.1200   13.8579   23.4151 C    0  0  0  0  0  0  0  0  0  0  0  0
    9.8922   14.0715   22.3126 N    0  0  0  0  0  0  0  0  0  0  0  0
   10.2135   15.3872   21.7137 C    0  0  0  0  0  0  0  0  0  0  0  0
   11.5107   15.3079   20.8695 C    0  0  0  0  0  0  0  0  0  0  0  0
    9.0341   15.9468   20.8678 C    0  0  0  0  0  0  0  0  0  0  0  0
    9.2730   17.3628   20.6646 O    0  0  0  0  0  0  0  0  0  0  0  0
    8.4300   18.1025   19.7510 C    0  0  0  0  0  0  0  0  0  0  0  0
    8.8284   12.4935   23.7392 C    0  0  0  0  0  0  0  0  0  0  0  0
    7.8197   11.9943   24.7153 C    0  0  0  0  0  0  0  0  0  0  0  0
    7.8589   10.6191   24.6316 C    0  0  0  0  0  0  0  0  0  0  0  0
    8.8314   10.3208   23.7339 N    0  0  0  0  0  0  0  0  0  0  0  0
    9.2876    8.9949   23.3174 C    0  0  0  0  0  0  0  0  0  0  0  0
    9.3919   11.4461   23.2093 N    0  0  0  0  0  0  0  0  0  0  0  0
    6.9143   12.6271   25.5778 C    0  0  0  0  0  0  0  0  0  0  0  0
    6.0702   11.8264   26.3737 C    0  0  0  0  0  0  0  0  0  0  0  0
    6.1094   10.4209   26.2709 C    0  0  0  0  0  0  0  0  0  0  0  0
    6.9986    9.8009   25.3762 C    0  0  0  0  0  0  0  0  0  0  0  0
   10.2109   13.2591   21.7925 H    0  0  0  0  0  0  0  0  0  0  0  0
   10.4087   16.0956   22.5308 H    0  0  0  0  0  0  0  0  0  0  0  0
   12.3678   15.0324   21.4911 H    0  0  0  0  0  0  0  0  0  0  0  0
   11.7331   16.2773   20.4152 H    0  0  0  0  0  0  0  0  0  0  0  0
   11.4090   14.5673   20.0718 H    0  0  0  0  0  0  0  0  0  0  0  0
    8.9460   15.4297   19.9065 H    0  0  0  0  0  0  0  0  0  0  0  0
    8.0763   15.8362   21.3891 H    0  0  0  0  0  0  0  0  0  0  0  0
    7.3794   18.0280   20.0487 H    0  0  0  0  0  0  0  0  0  0  0  0
    8.5464   17.7094   18.7351 H    0  0  0  0  0  0  0  0  0  0  0  0
    8.7285   19.1551   19.7579 H    0  0  0  0  0  0  0  0  0  0  0  0
   10.1890    9.0550   22.7024 H    0  0  0  0  0  0  0  0  0  0  0  0
    8.5245    8.4725   22.7327 H    0  0  0  0  0  0  0  0  0  0  0  0
    9.5293    8.3703   24.1816 H    0  0  0  0  0  0  0  0  0  0  0  0
    6.8633   13.7116   25.6455 H    0  0  0  0  0  0  0  0  0  0  0  0
    5.3808   12.3053   27.0603 H    0  0  0  0  0  0  0  0  0  0  0  0
    5.4533    9.8131   26.8874 H    0  0  0  0  0  0  0  0  0  0  0  0
    7.0298    8.7155   25.2827 H    0  0  0  0  0  0  0  0  0  0  0  0
  2  9  1  0  0  0  0
  3  2  1  0  0  0  0
 19  3  1  0  0  0  0
  1  2  2  0  0  0  0
  4  3  1  0  0  0  0
  5  4  1  0  0  0  0
 20  4  1  0  0  0  0
 21  5  1  0  0  0  0
 22  5  1  0  0  0  0
 23  5  1  0  0  0  0
  6  4  1  0  0  0  0
 24  6  1  0  0  0  0
 25  6  1  0  0  0  0
  7  6  1  0  0  0  0
  8  7  1  0  0  0  0
 26  8  1  0  0  0  0
 27  8  1  0  0  0  0
 28  8  1  0  0  0  0
 14  9  2  0  0  0  0
 10  9  1  0  0  0  0
 11 10  1  0  0  0  0
 18 11  2  0  0  0  0
 12 11  1  0  0  0  0
 13 12  1  0  0  0  0
 29 13  1  0  0  0  0
 30 13  1  0  0  0  0
 31 13  1  0  0  0  0
 15 10  2  0  0  0  0
 32 15  1  0  0  0  0
 16 15  1  0  0  0  0
 33 16  1  0  0  0  0
 17 16  2  0  0  0  0
 34 17  1  0  0  0  0
 35 18  1  0  0  0  0
 14 12  1  0  0  0  0
 18 17  1  0  0  0  0
M  END
>  <FittedScore>
-28.51

$$$$
