A71EV2A-x7321a_best-RMSD
  FITTED

 42 43     0  0  0  0  0  0  0999 V2000
   12.2869   14.0054   25.4965 C    0  0  0  0  0  0  0  0  0  0  0  0
   11.4897   13.8701   24.1796 C    0  0  0  0  0  0  0  0  0  0  0  0
   10.3339   14.9201   24.0126 C    0  0  0  0  0  0  0  0  0  0  0  0
   10.8563   16.3606   23.7131 C    0  0  0  0  0  0  0  0  0  0  0  0
   11.6540   16.5650   22.0894 S    0  0  0  0  0  0  0  0  0  0  0  0
   10.7125   15.3489   21.0966 C    0  0  0  0  0  0  0  0  0  0  0  0
   10.6019   15.8011   19.6420 C    0  0  0  0  0  0  0  0  0  0  0  0
   10.8765   14.8505   18.7286 N    0  0  0  0  0  0  0  0  0  0  0  0
   10.0537   16.8285   19.2921 O    0  0  0  0  0  0  0  0  0  0  0  0
    9.3079   14.9737   21.6669 C    0  0  0  0  0  0  0  0  0  0  0  0
    9.2518   14.4370   23.0722 N    0  0  0  0  0  0  0  0  0  0  0  0
    8.2508   13.5740   23.4639 C    0  0  0  0  0  0  0  0  0  0  0  0
    7.4009   13.1451   22.6956 O    0  0  0  0  0  0  0  0  0  0  0  0
    8.3007   13.1440   24.7566 O    0  0  0  0  0  0  0  0  0  0  0  0
    7.5705   12.0789   25.2507 C    0  0  0  0  0  0  0  0  0  0  0  0
    6.5613   12.3696   26.1788 C    0  0  0  0  0  0  0  0  0  0  0  0
    5.7864   11.3318   26.7203 C    0  0  0  0  0  0  0  0  0  0  0  0
    4.3863   11.7308   27.9583 BR   0  0  0  0  0  0  0  0  0  0  0  0
    6.0191   10.0071   26.3226 C    0  0  0  0  0  0  0  0  0  0  0  0
    7.0331    9.7136   25.3972 C    0  0  0  0  0  0  0  0  0  0  0  0
    7.8404   10.7411   24.8659 C    0  0  0  0  0  0  0  0  0  0  0  0
    9.2035   10.4148   23.7418 S    0  0  0  0  0  0  0  0  0  0  0  0
    9.3776    8.6277   23.4690 C    0  0  0  0  0  0  0  0  0  0  0  0
   11.6712   13.6758   26.3342 H    0  0  0  0  0  0  0  0  0  0  0  0
   12.6189   15.0244   25.6968 H    0  0  0  0  0  0  0  0  0  0  0  0
   13.1725   13.3673   25.4760 H    0  0  0  0  0  0  0  0  0  0  0  0
   11.0758   12.8595   24.1528 H    0  0  0  0  0  0  0  0  0  0  0  0
   12.1879   13.9160   23.3420 H    0  0  0  0  0  0  0  0  0  0  0  0
    9.8797   15.0541   24.9943 H    0  0  0  0  0  0  0  0  0  0  0  0
   11.5623   16.7083   24.4731 H    0  0  0  0  0  0  0  0  0  0  0  0
   10.0140   17.0592   23.7376 H    0  0  0  0  0  0  0  0  0  0  0  0
   11.3268   14.4435   21.1497 H    0  0  0  0  0  0  0  0  0  0  0  0
   10.8004   15.0426   17.7457 H    0  0  0  0  0  0  0  0  0  0  0  0
   11.0663   13.9020   19.0245 H    0  0  0  0  0  0  0  0  0  0  0  0
    8.8831   14.2394   20.9720 H    0  0  0  0  0  0  0  0  0  0  0  0
    8.6513   15.8496   21.6176 H    0  0  0  0  0  0  0  0  0  0  0  0
    6.3864   13.4015   26.4719 H    0  0  0  0  0  0  0  0  0  0  0  0
    5.4176    9.1984   26.7234 H    0  0  0  0  0  0  0  0  0  0  0  0
    7.1801    8.6746   25.1150 H    0  0  0  0  0  0  0  0  0  0  0  0
    9.5891    8.1345   24.4188 H    0  0  0  0  0  0  0  0  0  0  0  0
    8.4924    8.2031   22.9930 H    0  0  0  0  0  0  0  0  0  0  0  0
   10.2188    8.4614   22.7946 H    0  0  0  0  0  0  0  0  0  0  0  0
 11 12  1  0  0  0  0
 10 11  1  0  0  0  0
  6 10  1  0  0  0  0
  5  6  1  0  0  0  0
  4  5  1  0  0  0  0
  3  4  1  0  0  0  0
  2  3  1  0  0  0  0
  1  2  1  0  0  0  0
 24  1  1  0  0  0  0
 25  1  1  0  0  0  0
 26  1  1  0  0  0  0
 27  2  1  0  0  0  0
 28  2  1  0  0  0  0
 29  3  1  0  0  0  0
 30  4  1  0  0  0  0
 31  4  1  0  0  0  0
  7  6  1  0  0  0  0
 32  6  1  0  0  0  0
  8  7  1  0  0  0  0
  9  7  2  0  0  0  0
 33  8  1  0  0  0  0
 34  8  1  0  0  0  0
 35 10  1  0  0  0  0
 36 10  1  0  0  0  0
 13 12  2  0  0  0  0
 14 12  1  0  0  0  0
 15 14  1  0  0  0  0
 16 15  2  0  0  0  0
 17 16  1  0  0  0  0
 37 16  1  0  0  0  0
 18 17  1  0  0  0  0
 19 17  2  0  0  0  0
 20 19  1  0  0  0  0
 38 19  1  0  0  0  0
 21 20  2  0  0  0  0
 39 20  1  0  0  0  0
 22 21  1  0  0  0  0
 23 22  1  0  0  0  0
 40 23  1  0  0  0  0
 41 23  1  0  0  0  0
 42 23  1  0  0  0  0
 11  3  1  0  0  0  0
 21 15  1  0  0  0  0
M  END
>  <FittedScore>
-31.93

$$$$
