A71EV2A-x7321a_lowest-energy
  FITTED

 42 43     0  0  0  0  0  0  0999 V2000
   10.5392   16.4318   26.6363 C    0  0  0  0  0  0  0  0  0  0  0  0
    9.8338   15.3564   25.7603 C    0  0  0  0  0  0  0  0  0  0  0  0
    9.9567   15.5600   24.2048 C    0  0  0  0  0  0  0  0  0  0  0  0
   11.4502   15.4524   23.7358 C    0  0  0  0  0  0  0  0  0  0  0  0
   11.7186   16.2517   22.1150 S    0  0  0  0  0  0  0  0  0  0  0  0
   10.4308   15.3430   21.1751 C    0  0  0  0  0  0  0  0  0  0  0  0
   10.3701   15.8137   19.7229 C    0  0  0  0  0  0  0  0  0  0  0  0
   10.8440   14.9449   18.8073 N    0  0  0  0  0  0  0  0  0  0  0  0
    9.7951   16.8181   19.3521 O    0  0  0  0  0  0  0  0  0  0  0  0
    9.0436   15.4137   21.8865 C    0  0  0  0  0  0  0  0  0  0  0  0
    9.0331   14.7884   23.2599 N    0  0  0  0  0  0  0  0  0  0  0  0
    8.2683   13.6653   23.5293 C    0  0  0  0  0  0  0  0  0  0  0  0
    7.4910   13.1798   22.7160 O    0  0  0  0  0  0  0  0  0  0  0  0
    8.3868   13.0978   24.7524 O    0  0  0  0  0  0  0  0  0  0  0  0
    7.6086   12.0608   25.2346 C    0  0  0  0  0  0  0  0  0  0  0  0
    6.5744   12.3863   26.1226 C    0  0  0  0  0  0  0  0  0  0  0  0
    5.7620   11.3746   26.6495 C    0  0  0  0  0  0  0  0  0  0  0  0
    4.3586   11.8367   27.8489 BR   0  0  0  0  0  0  0  0  0  0  0  0
    5.9844   10.0340   26.2982 C    0  0  0  0  0  0  0  0  0  0  0  0
    7.0118    9.7110   25.4016 C    0  0  0  0  0  0  0  0  0  0  0  0
    7.8472   10.7150   24.8680 C    0  0  0  0  0  0  0  0  0  0  0  0
    9.2053   10.3491   23.7617 S    0  0  0  0  0  0  0  0  0  0  0  0
    9.2020    8.5673   23.4079 C    0  0  0  0  0  0  0  0  0  0  0  0
   10.3889   17.4407   26.2446 H    0  0  0  0  0  0  0  0  0  0  0  0
   11.6130   16.2464   26.7091 H    0  0  0  0  0  0  0  0  0  0  0  0
   10.1447   16.4128   27.6570 H    0  0  0  0  0  0  0  0  0  0  0  0
    8.7753   15.3619   26.0354 H    0  0  0  0  0  0  0  0  0  0  0  0
   10.2291   14.3760   26.0465 H    0  0  0  0  0  0  0  0  0  0  0  0
    9.6848   16.6163   24.0857 H    0  0  0  0  0  0  0  0  0  0  0  0
   11.7411   14.4014   23.6608 H    0  0  0  0  0  0  0  0  0  0  0  0
   12.1480   15.9311   24.4190 H    0  0  0  0  0  0  0  0  0  0  0  0
   10.7473   14.2962   21.2028 H    0  0  0  0  0  0  0  0  0  0  0  0
   10.7915   15.1808   17.8242 H    0  0  0  0  0  0  0  0  0  0  0  0
   11.1124   14.0101   19.0938 H    0  0  0  0  0  0  0  0  0  0  0  0
    8.3097   14.9740   21.2075 H    0  0  0  0  0  0  0  0  0  0  0  0
    8.7298   16.4608   21.9631 H    0  0  0  0  0  0  0  0  0  0  0  0
    6.4064   13.4256   26.3981 H    0  0  0  0  0  0  0  0  0  0  0  0
    5.3644    9.2359   26.7089 H    0  0  0  0  0  0  0  0  0  0  0  0
    7.1489    8.6619   25.1510 H    0  0  0  0  0  0  0  0  0  0  0  0
   10.0139    8.3307   22.7228 H    0  0  0  0  0  0  0  0  0  0  0  0
    8.2594    8.2825   22.9402 H    0  0  0  0  0  0  0  0  0  0  0  0
    9.3683    8.0195   24.3358 H    0  0  0  0  0  0  0  0  0  0  0  0
 11 12  1  0  0  0  0
 10 11  1  0  0  0  0
  6 10  1  0  0  0  0
  5  6  1  0  0  0  0
  4  5  1  0  0  0  0
  3  4  1  0  0  0  0
  2  3  1  0  0  0  0
  1  2  1  0  0  0  0
 24  1  1  0  0  0  0
 25  1  1  0  0  0  0
 26  1  1  0  0  0  0
 27  2  1  0  0  0  0
 28  2  1  0  0  0  0
 29  3  1  0  0  0  0
 30  4  1  0  0  0  0
 31  4  1  0  0  0  0
  7  6  1  0  0  0  0
 32  6  1  0  0  0  0
  8  7  1  0  0  0  0
  9  7  2  0  0  0  0
 33  8  1  0  0  0  0
 34  8  1  0  0  0  0
 35 10  1  0  0  0  0
 36 10  1  0  0  0  0
 13 12  2  0  0  0  0
 14 12  1  0  0  0  0
 15 14  1  0  0  0  0
 16 15  2  0  0  0  0
 17 16  1  0  0  0  0
 37 16  1  0  0  0  0
 18 17  1  0  0  0  0
 19 17  2  0  0  0  0
 20 19  1  0  0  0  0
 38 19  1  0  0  0  0
 21 20  2  0  0  0  0
 39 20  1  0  0  0  0
 22 21  1  0  0  0  0
 23 22  1  0  0  0  0
 40 23  1  0  0  0  0
 41 23  1  0  0  0  0
 42 23  1  0  0  0  0
 11  3  1  0  0  0  0
 21 15  1  0  0  0  0
M  END
>  <FittedScore>
-31.42

$$$$
