A71EV2A-x5460a_best-RMSD
  FITTED

 36 38     0  0  0  0  0  0  0999 V2000
   10.8007   15.0493   25.5786 O    0  0  0  0  0  0  0  0  0  0  0  0
   10.7018   15.1502   24.3639 C    0  0  0  0  0  0  0  0  0  0  0  0
   11.8415   15.8279   23.5859 C    0  0  0  0  0  0  0  0  0  0  0  0
   11.5038   16.2722   22.1364 C    0  0  0  0  0  0  0  0  0  0  0  0
    9.6381   14.6046   23.6728 N    0  0  0  0  0  0  0  0  0  0  0  0
    9.4043   14.8516   22.2154 C    0  0  0  0  0  0  0  0  0  0  0  0
   10.6894   15.1758   21.3996 C    0  0  0  0  0  0  0  0  0  0  0  0
   10.3819   15.5790   19.9489 C    0  0  0  0  0  0  0  0  0  0  0  0
    9.7911   16.5914   19.6258 O    0  0  0  0  0  0  0  0  0  0  0  0
   10.6918   14.6784   18.9969 N    0  0  0  0  0  0  0  0  0  0  0  0
    8.6088   13.8416   24.3515 C    0  0  0  0  0  0  0  0  0  0  0  0
    8.5642   12.4207   24.3220 C    0  0  0  0  0  0  0  0  0  0  0  0
    9.5246   11.6458   23.6314 C    0  0  0  0  0  0  0  0  0  0  0  0
    9.4235   10.2497   23.5898 C    0  0  0  0  0  0  0  0  0  0  0  0
    8.3767    9.5988   24.2496 C    0  0  0  0  0  0  0  0  0  0  0  0
    7.4376   10.3396   24.9774 C    0  0  0  0  0  0  0  0  0  0  0  0
    7.5156   11.7443   25.0114 C    0  0  0  0  0  0  0  0  0  0  0  0
    6.5519   12.4783   25.7236 C    0  0  0  0  0  0  0  0  0  0  0  0
    6.6114   13.8764   25.7517 C    0  0  0  0  0  0  0  0  0  0  0  0
    7.6270   14.5540   25.0681 C    0  0  0  0  0  0  0  0  0  0  0  0
   12.1743   16.7078   24.1474 H    0  0  0  0  0  0  0  0  0  0  0  0
   12.6943   15.1428   23.5559 H    0  0  0  0  0  0  0  0  0  0  0  0
   10.9318   17.2054   22.1693 H    0  0  0  0  0  0  0  0  0  0  0  0
   12.4310   16.4915   21.5947 H    0  0  0  0  0  0  0  0  0  0  0  0
    8.6879   15.6755   22.1317 H    0  0  0  0  0  0  0  0  0  0  0  0
    8.9224   13.9809   21.7576 H    0  0  0  0  0  0  0  0  0  0  0  0
   11.2982   14.2628   21.3928 H    0  0  0  0  0  0  0  0  0  0  0  0
   10.5213   14.8938   18.0201 H    0  0  0  0  0  0  0  0  0  0  0  0
   10.9737   13.7362   19.2488 H    0  0  0  0  0  0  0  0  0  0  0  0
   10.3596   12.1076   23.1095 H    0  0  0  0  0  0  0  0  0  0  0  0
   10.1623    9.6736   23.0399 H    0  0  0  0  0  0  0  0  0  0  0  0
    8.2996    8.5159   24.2066 H    0  0  0  0  0  0  0  0  0  0  0  0
    6.6392    9.8150   25.4977 H    0  0  0  0  0  0  0  0  0  0  0  0
    5.7496   11.9733   26.2579 H    0  0  0  0  0  0  0  0  0  0  0  0
    5.8683   14.4411   26.3055 H    0  0  0  0  0  0  0  0  0  0  0  0
    7.6534   15.6414   25.1038 H    0  0  0  0  0  0  0  0  0  0  0  0
  2  5  1  0  0  0  0
  3  2  1  0  0  0  0
 21  3  1  0  0  0  0
  1  2  2  0  0  0  0
 22  3  1  0  0  0  0
  4  3  1  0  0  0  0
 23  4  1  0  0  0  0
 24  4  1  0  0  0  0
  6  5  1  0  0  0  0
 25  6  1  0  0  0  0
 26  6  1  0  0  0  0
  7  4  1  0  0  0  0
  8  7  1  0  0  0  0
 27  7  1  0  0  0  0
  9  8  2  0  0  0  0
 10  8  1  0  0  0  0
 28 10  1  0  0  0  0
 29 10  1  0  0  0  0
 11  5  1  0  0  0  0
 20 11  1  0  0  0  0
 12 11  2  0  0  0  0
 13 12  1  0  0  0  0
 30 13  1  0  0  0  0
 14 13  2  0  0  0  0
 31 14  1  0  0  0  0
 15 14  1  0  0  0  0
 32 15  1  0  0  0  0
 16 15  2  0  0  0  0
 33 16  1  0  0  0  0
 17 16  1  0  0  0  0
 18 17  2  0  0  0  0
 34 18  1  0  0  0  0
 19 18  1  0  0  0  0
 35 19  1  0  0  0  0
 36 20  1  0  0  0  0
  7  6  1  0  0  0  0
 17 12  1  0  0  0  0
 20 19  2  0  0  0  0
M  END
>  <FittedScore>
-34.59

$$$$
