A71EV2A-x5460a_lowest-energy
  FITTED

 36 38     0  0  0  0  0  0  0999 V2000
   10.8172   14.6200   25.3935 O    0  0  0  0  0  0  0  0  0  0  0  0
   10.6819   14.8636   24.2059 C    0  0  0  0  0  0  0  0  0  0  0  0
   11.8117   15.6073   23.4758 C    0  0  0  0  0  0  0  0  0  0  0  0
   11.4689   16.1388   22.0603 C    0  0  0  0  0  0  0  0  0  0  0  0
    9.5774   14.4207   23.5135 N    0  0  0  0  0  0  0  0  0  0  0  0
    9.3294   14.7742   22.0879 C    0  0  0  0  0  0  0  0  0  0  0  0
   10.6265   15.0922   21.2893 C    0  0  0  0  0  0  0  0  0  0  0  0
   10.3322   15.5389   19.8558 C    0  0  0  0  0  0  0  0  0  0  0  0
    9.6923   16.5357   19.5766 O    0  0  0  0  0  0  0  0  0  0  0  0
   10.6704   14.6569   18.8968 N    0  0  0  0  0  0  0  0  0  0  0  0
    8.5441   13.6545   24.1750 C    0  0  0  0  0  0  0  0  0  0  0  0
    8.5199   12.2355   24.1667 C    0  0  0  0  0  0  0  0  0  0  0  0
    9.4635   11.4658   23.4475 C    0  0  0  0  0  0  0  0  0  0  0  0
    9.4009   10.0678   23.4535 C    0  0  0  0  0  0  0  0  0  0  0  0
    8.4015    9.4123   24.1799 C    0  0  0  0  0  0  0  0  0  0  0  0
    7.4752   10.1494   24.9279 C    0  0  0  0  0  0  0  0  0  0  0  0
    7.5168   11.5558   24.9147 C    0  0  0  0  0  0  0  0  0  0  0  0
    6.5572   12.2844   25.6387 C    0  0  0  0  0  0  0  0  0  0  0  0
    6.5761   13.6840   25.6156 C    0  0  0  0  0  0  0  0  0  0  0  0
    7.5616   14.3637   24.8920 C    0  0  0  0  0  0  0  0  0  0  0  0
   12.1291   16.4539   24.0902 H    0  0  0  0  0  0  0  0  0  0  0  0
   12.6759   14.9395   23.4020 H    0  0  0  0  0  0  0  0  0  0  0  0
   10.9147   17.0771   22.1499 H    0  0  0  0  0  0  0  0  0  0  0  0
   12.3889   16.3627   21.5106 H    0  0  0  0  0  0  0  0  0  0  0  0
    8.6563   15.6339   22.0695 H    0  0  0  0  0  0  0  0  0  0  0  0
    8.7989   13.9601   21.5835 H    0  0  0  0  0  0  0  0  0  0  0  0
   11.2142   14.1664   21.2611 H    0  0  0  0  0  0  0  0  0  0  0  0
   10.9898   13.7205   19.1219 H    0  0  0  0  0  0  0  0  0  0  0  0
   10.4871   14.8741   17.9296 H    0  0  0  0  0  0  0  0  0  0  0  0
   10.2526   11.9331   22.8628 H    0  0  0  0  0  0  0  0  0  0  0  0
   10.1258    9.4950   22.8819 H    0  0  0  0  0  0  0  0  0  0  0  0
    8.3538    8.3273   24.1735 H    0  0  0  0  0  0  0  0  0  0  0  0
    6.7130    9.6196   25.4965 H    0  0  0  0  0  0  0  0  0  0  0  0
    5.7836   11.7743   26.2117 H    0  0  0  0  0  0  0  0  0  0  0  0
    5.8239   14.2449   26.1627 H    0  0  0  0  0  0  0  0  0  0  0  0
    7.5735   15.4514   24.9040 H    0  0  0  0  0  0  0  0  0  0  0  0
  2  5  1  0  0  0  0
  3  2  1  0  0  0  0
 21  3  1  0  0  0  0
  1  2  2  0  0  0  0
 22  3  1  0  0  0  0
  4  3  1  0  0  0  0
 23  4  1  0  0  0  0
 24  4  1  0  0  0  0
  6  5  1  0  0  0  0
 25  6  1  0  0  0  0
 26  6  1  0  0  0  0
  7  4  1  0  0  0  0
  8  7  1  0  0  0  0
 27  7  1  0  0  0  0
  9  8  2  0  0  0  0
 10  8  1  0  0  0  0
 28 10  1  0  0  0  0
 29 10  1  0  0  0  0
 11  5  1  0  0  0  0
 20 11  1  0  0  0  0
 12 11  2  0  0  0  0
 13 12  1  0  0  0  0
 30 13  1  0  0  0  0
 14 13  2  0  0  0  0
 31 14  1  0  0  0  0
 15 14  1  0  0  0  0
 32 15  1  0  0  0  0
 16 15  2  0  0  0  0
 33 16  1  0  0  0  0
 17 16  1  0  0  0  0
 18 17  2  0  0  0  0
 34 18  1  0  0  0  0
 19 18  1  0  0  0  0
 35 19  1  0  0  0  0
 36 20  1  0  0  0  0
  7  6  1  0  0  0  0
 17 12  1  0  0  0  0
 20 19  2  0  0  0  0
M  END
>  <FittedScore>
-33.85

$$$$
