A71EV2A-x2351a_lowest-energy
  FITTED

 22 23     0  0  0  0  0  0  0999 V2000
    5.0420   13.4828   25.7633 F    0  0  0  0  0  0  0  0  0  0  0  0
    5.9614   12.6942   25.1666 C    0  0  0  0  0  0  0  0  0  0  0  0
    6.9828   13.2635   24.3781 C    0  0  0  0  0  0  0  0  0  0  0  0
    5.8943   11.2980   25.3543 C    0  0  0  0  0  0  0  0  0  0  0  0
    6.8385   10.4566   24.7422 C    0  0  0  0  0  0  0  0  0  0  0  0
    7.8533   11.0404   23.9684 C    0  0  0  0  0  0  0  0  0  0  0  0
    8.8923   10.4633   23.3051 N    0  0  0  0  0  0  0  0  0  0  0  0
    9.0581    9.0366   23.0118 C    0  0  0  0  0  0  0  0  0  0  0  0
    7.9338   12.4076   23.7876 C    0  0  0  0  0  0  0  0  0  0  0  0
    9.0526   12.6483   22.9879 C    0  0  0  0  0  0  0  0  0  0  0  0
    9.6951   11.3452   22.6463 N    0  0  0  0  0  0  0  0  0  0  0  0
    9.5877   13.9801   22.5213 C    0  0  0  0  0  0  0  0  0  0  0  0
    9.0660   15.0491   22.7506 O    0  0  0  0  0  0  0  0  0  0  0  0
   10.6669   13.9202   21.7127 N    0  0  0  0  0  0  0  0  0  0  0  0
    7.0221   14.3379   24.2416 H    0  0  0  0  0  0  0  0  0  0  0  0
    5.1068   10.8621   25.9669 H    0  0  0  0  0  0  0  0  0  0  0  0
    6.7888    9.3781   24.8799 H    0  0  0  0  0  0  0  0  0  0  0  0
    8.1489    8.6068   22.5830 H    0  0  0  0  0  0  0  0  0  0  0  0
    9.2867    8.4788   23.9225 H    0  0  0  0  0  0  0  0  0  0  0  0
    9.8701    8.8310   22.3070 H    0  0  0  0  0  0  0  0  0  0  0  0
   10.9803   14.7717   21.2608 H    0  0  0  0  0  0  0  0  0  0  0  0
   10.9785   13.0262   21.3366 H    0  0  0  0  0  0  0  0  0  0  0  0
  3  9  1  0  0  0  0
  2  3  2  0  0  0  0
  1  2  1  0  0  0  0
 15  3  1  0  0  0  0
  4  2  1  0  0  0  0
 16  4  1  0  0  0  0
  5  4  2  0  0  0  0
 17  5  1  0  0  0  0
  6  5  1  0  0  0  0
  7  6  1  0  0  0  0
 11  7  1  0  0  0  0
  8  7  1  0  0  0  0
 18  8  1  0  0  0  0
 19  8  1  0  0  0  0
 20  8  1  0  0  0  0
 10  9  1  0  0  0  0
 12 10  1  0  0  0  0
 13 12  2  0  0  0  0
 14 12  1  0  0  0  0
 21 14  1  0  0  0  0
 22 14  1  0  0  0  0
  9  6  2  0  0  0  0
 11 10  2  0  0  0  0
M  END
>  <FittedScore>
-23.11

$$$$
