A71EV2A-x3403a_lowest-energy
  FITTED

 31 33     0  0  0  0  0  0  0999 V2000
   10.9114   15.0630   24.2385 O    0  0  0  0  0  0  0  0  0  0  0  0
   10.9013   14.4572   23.1819 C    0  0  0  0  0  0  0  0  0  0  0  0
   11.6872   14.9375   21.9719 C    0  0  0  0  0  0  0  0  0  0  0  0
   10.7636   15.5748   20.9402 C    0  0  0  0  0  0  0  0  0  0  0  0
    9.7621   16.6052   21.2519 N    0  0  0  0  0  0  0  0  0  0  0  0
    9.1070   16.7448   19.9508 C    0  0  0  0  0  0  0  0  0  0  0  0
    9.6378   15.8947   19.0104 O    0  0  0  0  0  0  0  0  0  0  0  0
   10.6379   15.1844   19.6193 C    0  0  0  0  0  0  0  0  0  0  0  0
   10.0616   13.4275   22.9133 N    0  0  0  0  0  0  0  0  0  0  0  0
    8.9519   13.0046   23.6889 C    0  0  0  0  0  0  0  0  0  0  0  0
    8.0281   13.8002   24.2710 C    0  0  0  0  0  0  0  0  0  0  0  0
    6.9934   13.3467   25.0087 C    0  0  0  0  0  0  0  0  0  0  0  0
    6.7528   12.0407   25.2401 C    0  0  0  0  0  0  0  0  0  0  0  0
    8.7532   11.5402   23.8616 C    0  0  0  0  0  0  0  0  0  0  0  0
    7.7001   11.0756   24.6099 C    0  0  0  0  0  0  0  0  0  0  0  0
    7.7429    9.7074   24.5531 C    0  0  0  0  0  0  0  0  0  0  0  0
    9.5566   10.4524   23.2907 N    0  0  0  0  0  0  0  0  0  0  0  0
    8.8318    9.4048   23.7772 N    0  0  0  0  0  0  0  0  0  0  0  0
    9.2924    8.0756   23.4082 C    0  0  0  0  0  0  0  0  0  0  0  0
   12.2357   14.0951   21.5376 H    0  0  0  0  0  0  0  0  0  0  0  0
   12.4369   15.6709   22.2825 H    0  0  0  0  0  0  0  0  0  0  0  0
    8.3166   17.4689   19.7714 H    0  0  0  0  0  0  0  0  0  0  0  0
   11.2223   14.4120   19.1249 H    0  0  0  0  0  0  0  0  0  0  0  0
   10.2412   12.9131   22.0531 H    0  0  0  0  0  0  0  0  0  0  0  0
    8.1210   14.8778   24.1474 H    0  0  0  0  0  0  0  0  0  0  0  0
    6.3181   14.0778   25.4467 H    0  0  0  0  0  0  0  0  0  0  0  0
    5.9027   11.7409   25.8473 H    0  0  0  0  0  0  0  0  0  0  0  0
    7.0573    8.9999   25.0155 H    0  0  0  0  0  0  0  0  0  0  0  0
    9.7037    8.0343   22.3957 H    0  0  0  0  0  0  0  0  0  0  0  0
    8.4799    7.3472   23.4427 H    0  0  0  0  0  0  0  0  0  0  0  0
   10.0664    7.7288   24.0959 H    0  0  0  0  0  0  0  0  0  0  0  0
  2  9  1  0  0  0  0
  3  2  1  0  0  0  0
 20  3  1  0  0  0  0
  1  2  2  0  0  0  0
 21  3  1  0  0  0  0
  4  3  1  0  0  0  0
  8  4  2  0  0  0  0
  5  4  1  0  0  0  0
  6  5  2  0  0  0  0
 22  6  1  0  0  0  0
  7  6  1  0  0  0  0
 23  8  1  0  0  0  0
 24  9  1  0  0  0  0
 10  9  1  0  0  0  0
 11 10  2  0  0  0  0
 25 11  1  0  0  0  0
 12 11  1  0  0  0  0
 26 12  1  0  0  0  0
 13 12  2  0  0  0  0
 27 13  1  0  0  0  0
 14 10  1  0  0  0  0
 15 13  1  0  0  0  0
 16 15  2  0  0  0  0
 28 16  1  0  0  0  0
 17 14  2  0  0  0  0
 18 16  1  0  0  0  0
 19 18  1  0  0  0  0
 29 19  1  0  0  0  0
 30 19  1  0  0  0  0
 31 19  1  0  0  0  0
  8  7  1  0  0  0  0
 15 14  1  0  0  0  0
 18 17  1  0  0  0  0
M  END
>  <FittedScore>
-28.53

$$$$
