A71EV2A-x3618a_lowest-energy
  FITTED

 45 46     0  0  0  0  0  0  0999 V2000
    9.8849   16.6899   19.2920 O    0  0  0  0  0  0  0  0  0  0  0  0
   10.4139   15.6518   19.6462 C    0  0  0  0  0  0  0  0  0  0  0  0
   10.9271   14.8171   18.7205 N    0  0  0  0  0  0  0  0  0  0  0  0
   10.3471   15.1201   21.0799 C    0  0  0  0  0  0  0  0  0  0  0  0
   11.3191   15.8699   22.0365 C    0  0  0  0  0  0  0  0  0  0  0  0
   11.1713   15.3607   23.4994 C    0  0  0  0  0  0  0  0  0  0  0  0
    9.6918   15.3508   23.9756 C    0  0  0  0  0  0  0  0  0  0  0  0
    8.8962   15.1838   21.6379 C    0  0  0  0  0  0  0  0  0  0  0  0
    8.7651   14.6439   23.0282 N    0  0  0  0  0  0  0  0  0  0  0  0
    7.8881   13.6299   23.3280 C    0  0  0  0  0  0  0  0  0  0  0  0
    7.2229   13.0725   22.4753 O    0  0  0  0  0  0  0  0  0  0  0  0
    7.6901   13.3158   24.6346 N    0  0  0  0  0  0  0  0  0  0  0  0
    6.9973   12.1541   25.1150 C    0  0  0  0  0  0  0  0  0  0  0  0
    7.5200   10.8808   24.8484 C    0  0  0  0  0  0  0  0  0  0  0  0
    6.8356    9.7456   25.2854 C    0  0  0  0  0  0  0  0  0  0  0  0
    5.6300    9.8765   25.9808 C    0  0  0  0  0  0  0  0  0  0  0  0
    5.7823   12.2929   25.8035 C    0  0  0  0  0  0  0  0  0  0  0  0
    5.0625   11.1457   26.2304 C    0  0  0  0  0  0  0  0  0  0  0  0
    3.7204   11.2130   26.9392 C    0  0  0  0  0  0  0  0  0  0  0  0
    3.1725   10.2360   27.4202 O    0  0  0  0  0  0  0  0  0  0  0  0
    3.1071   12.4246   26.9476 N    0  0  0  0  0  0  0  0  0  0  0  0
    1.8733   12.7659   27.6848 C    0  0  0  0  0  0  0  0  0  0  0  0
    0.5896   12.3824   26.9174 C    0  0  0  0  0  0  0  0  0  0  0  0
   10.8829   15.0811   17.7433 H    0  0  0  0  0  0  0  0  0  0  0  0
   11.1606   13.8568   18.9753 H    0  0  0  0  0  0  0  0  0  0  0  0
   10.6375   14.0613   21.0822 H    0  0  0  0  0  0  0  0  0  0  0  0
   12.3503   15.7279   21.7047 H    0  0  0  0  0  0  0  0  0  0  0  0
   11.1174   16.9447   22.0091 H    0  0  0  0  0  0  0  0  0  0  0  0
   11.5841   14.3510   23.5854 H    0  0  0  0  0  0  0  0  0  0  0  0
   11.7575   15.9996   24.1663 H    0  0  0  0  0  0  0  0  0  0  0  0
    9.6860   14.9175   24.9769 H    0  0  0  0  0  0  0  0  0  0  0  0
    9.3424   16.3803   24.1074 H    0  0  0  0  0  0  0  0  0  0  0  0
    8.2448   14.6767   20.9207 H    0  0  0  0  0  0  0  0  0  0  0  0
    8.5369   16.2197   21.6472 H    0  0  0  0  0  0  0  0  0  0  0  0
    7.8955   14.0206   25.3406 H    0  0  0  0  0  0  0  0  0  0  0  0
    8.4565   10.7623   24.3088 H    0  0  0  0  0  0  0  0  0  0  0  0
    7.2387    8.7577   25.0921 H    0  0  0  0  0  0  0  0  0  0  0  0
    5.1332    8.9692   26.3141 H    0  0  0  0  0  0  0  0  0  0  0  0
    5.4103   13.3002   25.9961 H    0  0  0  0  0  0  0  0  0  0  0  0
    3.4885   13.1554   26.3453 H    0  0  0  0  0  0  0  0  0  0  0  0
    1.8718   12.2757   28.6639 H    0  0  0  0  0  0  0  0  0  0  0  0
    1.8707   13.8385   27.8730 H    0  0  0  0  0  0  0  0  0  0  0  0
    0.5329   12.9005   25.9526 H    0  0  0  0  0  0  0  0  0  0  0  0
   -0.3011   12.6444   27.4927 H    0  0  0  0  0  0  0  0  0  0  0  0
    0.5630   11.3042   26.7334 H    0  0  0  0  0  0  0  0  0  0  0  0
 10 12  1  0  0  0  0
  9 10  1  0  0  0  0
  7  9  1  0  0  0  0
  6  7  1  0  0  0  0
  5  6  1  0  0  0  0
  4  5  1  0  0  0  0
  2  4  1  0  0  0  0
  1  2  2  0  0  0  0
  3  2  1  0  0  0  0
 24  3  1  0  0  0  0
 25  3  1  0  0  0  0
 26  4  1  0  0  0  0
 27  5  1  0  0  0  0
 28  5  1  0  0  0  0
 29  6  1  0  0  0  0
 30  6  1  0  0  0  0
 31  7  1  0  0  0  0
 32  7  1  0  0  0  0
  8  4  1  0  0  0  0
 33  8  1  0  0  0  0
 34  8  1  0  0  0  0
 11 10  2  0  0  0  0
 35 12  1  0  0  0  0
 13 12  1  0  0  0  0
 14 13  1  0  0  0  0
 36 14  1  0  0  0  0
 15 14  2  0  0  0  0
 37 15  1  0  0  0  0
 16 15  1  0  0  0  0
 38 16  1  0  0  0  0
 17 13  2  0  0  0  0
 39 17  1  0  0  0  0
 18 16  2  0  0  0  0
 19 18  1  0  0  0  0
 20 19  2  0  0  0  0
 21 19  1  0  0  0  0
 40 21  1  0  0  0  0
 22 21  1  0  0  0  0
 41 22  1  0  0  0  0
 42 22  1  0  0  0  0
 23 22  1  0  0  0  0
 43 23  1  0  0  0  0
 44 23  1  0  0  0  0
 45 23  1  0  0  0  0
  9  8  1  0  0  0  0
 18 17  1  0  0  0  0
M  END
>  <FittedScore>
-40.23

$$$$
