A71EV2A-x3618a_best-RMSD
  FITTED

 45 46     0  0  0  0  0  0  0999 V2000
    9.8347   16.6813   19.3160 O    0  0  0  0  0  0  0  0  0  0  0  0
   10.4107   15.6649   19.6577 C    0  0  0  0  0  0  0  0  0  0  0  0
   10.9318   14.8471   18.7218 N    0  0  0  0  0  0  0  0  0  0  0  0
   10.3781   15.1209   21.0874 C    0  0  0  0  0  0  0  0  0  0  0  0
   11.3476   15.8814   22.0349 C    0  0  0  0  0  0  0  0  0  0  0  0
   11.2327   15.3361   23.4844 C    0  0  0  0  0  0  0  0  0  0  0  0
    9.7635   15.2864   23.9864 C    0  0  0  0  0  0  0  0  0  0  0  0
    8.9295   15.1504   21.6556 C    0  0  0  0  0  0  0  0  0  0  0  0
    8.8082   14.6062   23.0442 N    0  0  0  0  0  0  0  0  0  0  0  0
    7.8975   13.6224   23.3503 C    0  0  0  0  0  0  0  0  0  0  0  0
    7.2159   13.0650   22.5088 O    0  0  0  0  0  0  0  0  0  0  0  0
    7.6915   13.3201   24.6580 N    0  0  0  0  0  0  0  0  0  0  0  0
    6.9745   12.1820   25.1455 C    0  0  0  0  0  0  0  0  0  0  0  0
    7.4535   10.8900   24.8683 C    0  0  0  0  0  0  0  0  0  0  0  0
    6.7440    9.7761   25.3182 C    0  0  0  0  0  0  0  0  0  0  0  0
    5.5580    9.9389   26.0387 C    0  0  0  0  0  0  0  0  0  0  0  0
    5.7752   12.3505   25.8569 C    0  0  0  0  0  0  0  0  0  0  0  0
    5.0385   11.2281   26.3061 C    0  0  0  0  0  0  0  0  0  0  0  0
    3.7316   11.3347   27.0690 C    0  0  0  0  0  0  0  0  0  0  0  0
    3.1834   10.3700   27.5643 O    0  0  0  0  0  0  0  0  0  0  0  0
    3.1385   12.5606   27.0682 N    0  0  0  0  0  0  0  0  0  0  0  0
    1.8922   12.9284   27.7730 C    0  0  0  0  0  0  0  0  0  0  0  0
    0.6001   12.4078   27.1023 C    0  0  0  0  0  0  0  0  0  0  0  0
   11.1992   13.8975   18.9766 H    0  0  0  0  0  0  0  0  0  0  0  0
   10.8683   15.1093   17.7448 H    0  0  0  0  0  0  0  0  0  0  0  0
   10.6973   14.0711   21.0825 H    0  0  0  0  0  0  0  0  0  0  0  0
   12.3777   15.7687   21.6849 H    0  0  0  0  0  0  0  0  0  0  0  0
   11.1225   16.9518   22.0306 H    0  0  0  0  0  0  0  0  0  0  0  0
   11.6759   14.3367   23.5412 H    0  0  0  0  0  0  0  0  0  0  0  0
   11.8113   15.9770   24.1543 H    0  0  0  0  0  0  0  0  0  0  0  0
    9.7914   14.8021   24.9626 H    0  0  0  0  0  0  0  0  0  0  0  0
    9.4070   16.3042   24.1705 H    0  0  0  0  0  0  0  0  0  0  0  0
    8.2880   14.6302   20.9383 H    0  0  0  0  0  0  0  0  0  0  0  0
    8.5530   16.1782   21.6656 H    0  0  0  0  0  0  0  0  0  0  0  0
    7.9214   14.0172   25.3613 H    0  0  0  0  0  0  0  0  0  0  0  0
    8.3715   10.7499   24.2998 H    0  0  0  0  0  0  0  0  0  0  0  0
    7.1145    8.7771   25.1082 H    0  0  0  0  0  0  0  0  0  0  0  0
    5.0380    9.0448   26.3753 H    0  0  0  0  0  0  0  0  0  0  0  0
    5.4308   13.3662   26.0448 H    0  0  0  0  0  0  0  0  0  0  0  0
    3.4997   13.2606   26.4247 H    0  0  0  0  0  0  0  0  0  0  0  0
    1.9421   12.5654   28.8032 H    0  0  0  0  0  0  0  0  0  0  0  0
    1.8384   14.0197   27.8231 H    0  0  0  0  0  0  0  0  0  0  0  0
   -0.2801   12.8187   27.6049 H    0  0  0  0  0  0  0  0  0  0  0  0
    0.5347   11.3188   27.1654 H    0  0  0  0  0  0  0  0  0  0  0  0
    0.5533   12.6958   26.0498 H    0  0  0  0  0  0  0  0  0  0  0  0
 10 12  1  0  0  0  0
  9 10  1  0  0  0  0
  7  9  1  0  0  0  0
  6  7  1  0  0  0  0
  5  6  1  0  0  0  0
  4  5  1  0  0  0  0
  2  4  1  0  0  0  0
  1  2  2  0  0  0  0
  3  2  1  0  0  0  0
 24  3  1  0  0  0  0
 25  3  1  0  0  0  0
 26  4  1  0  0  0  0
 27  5  1  0  0  0  0
 28  5  1  0  0  0  0
 29  6  1  0  0  0  0
 30  6  1  0  0  0  0
 31  7  1  0  0  0  0
 32  7  1  0  0  0  0
  8  4  1  0  0  0  0
 33  8  1  0  0  0  0
 34  8  1  0  0  0  0
 11 10  2  0  0  0  0
 35 12  1  0  0  0  0
 13 12  1  0  0  0  0
 14 13  1  0  0  0  0
 36 14  1  0  0  0  0
 15 14  2  0  0  0  0
 37 15  1  0  0  0  0
 16 15  1  0  0  0  0
 38 16  1  0  0  0  0
 17 13  2  0  0  0  0
 39 17  1  0  0  0  0
 18 16  2  0  0  0  0
 19 18  1  0  0  0  0
 20 19  2  0  0  0  0
 21 19  1  0  0  0  0
 40 21  1  0  0  0  0
 22 21  1  0  0  0  0
 41 22  1  0  0  0  0
 42 22  1  0  0  0  0
 23 22  1  0  0  0  0
 43 23  1  0  0  0  0
 44 23  1  0  0  0  0
 45 23  1  0  0  0  0
  9  8  1  0  0  0  0
 18 17  1  0  0  0  0
M  END
>  <FittedScore>
-38.62

$$$$
