A71EV2A-x4538a_lowest-energy
  FITTED

 36 37     0  0  0  0  0  0  0999 V2000
    6.4486   12.2711   25.8915 BR   0  0  0  0  0  0  0  0  0  0  0  0
    7.7869   11.0898   25.1564 C    0  0  0  0  0  0  0  0  0  0  0  0
    7.4275    9.7229   25.0662 C    0  0  0  0  0  0  0  0  0  0  0  0
    6.2645    9.2356   25.5431 F    0  0  0  0  0  0  0  0  0  0  0  0
    8.2535    8.7979   24.4214 C    0  0  0  0  0  0  0  0  0  0  0  0
    9.4683    9.2087   23.8829 C    0  0  0  0  0  0  0  0  0  0  0  0
    9.8547   10.5458   23.9919 C    0  0  0  0  0  0  0  0  0  0  0  0
    9.0546   11.5198   24.6351 C    0  0  0  0  0  0  0  0  0  0  0  0
    9.5598   13.0009   24.5646 C    0  0  0  0  0  0  0  0  0  0  0  0
    9.3137   13.6536   25.7078 F    0  0  0  0  0  0  0  0  0  0  0  0
   10.9140   13.0461   24.5065 F    0  0  0  0  0  0  0  0  0  0  0  0
    8.9386   13.7569   23.3598 C    0  0  0  0  0  0  0  0  0  0  0  0
    8.1148   13.1870   22.6623 O    0  0  0  0  0  0  0  0  0  0  0  0
    9.4109   14.9944   22.9736 N    0  0  0  0  0  0  0  0  0  0  0  0
   10.2825   15.9398   23.7589 C    0  0  0  0  0  0  0  0  0  0  0  0
   11.7077   16.0684   23.1568 C    0  0  0  0  0  0  0  0  0  0  0  0
   11.6656   16.4421   21.6504 C    0  0  0  0  0  0  0  0  0  0  0  0
    9.2920   15.4863   21.5608 C    0  0  0  0  0  0  0  0  0  0  0  0
   10.6942   15.5012   20.8829 C    0  0  0  0  0  0  0  0  0  0  0  0
   10.6054   15.8599   19.4096 C    0  0  0  0  0  0  0  0  0  0  0  0
   10.1915   16.9238   19.0001 O    0  0  0  0  0  0  0  0  0  0  0  0
   10.8751   14.8592   18.5530 N    0  0  0  0  0  0  0  0  0  0  0  0
    7.9443    7.7572   24.3344 H    0  0  0  0  0  0  0  0  0  0  0  0
   10.1103    8.5012   23.3659 H    0  0  0  0  0  0  0  0  0  0  0  0
   10.8032   10.8115   23.5311 H    0  0  0  0  0  0  0  0  0  0  0  0
    9.8092   16.9252   23.7876 H    0  0  0  0  0  0  0  0  0  0  0  0
   10.3903   15.6705   24.8050 H    0  0  0  0  0  0  0  0  0  0  0  0
   12.2789   16.8206   23.7080 H    0  0  0  0  0  0  0  0  0  0  0  0
   12.2413   15.1185   23.2737 H    0  0  0  0  0  0  0  0  0  0  0  0
   11.3544   17.4837   21.5380 H    0  0  0  0  0  0  0  0  0  0  0  0
   12.6714   16.3570   21.2246 H    0  0  0  0  0  0  0  0  0  0  0  0
    8.8483   16.4867   21.5514 H    0  0  0  0  0  0  0  0  0  0  0  0
    8.6165   14.8826   20.9492 H    0  0  0  0  0  0  0  0  0  0  0  0
   11.1023   14.4874   20.9809 H    0  0  0  0  0  0  0  0  0  0  0  0
   11.0920   13.9128   18.8624 H    0  0  0  0  0  0  0  0  0  0  0  0
   10.8248   15.0378   17.5583 H    0  0  0  0  0  0  0  0  0  0  0  0
  9 12  1  0  0  0  0
  8  9  1  0  0  0  0
  7  8  2  0  0  0  0
  6  7  1  0  0  0  0
  5  6  2  0  0  0  0
  3  5  1  0  0  0  0
  2  3  2  0  0  0  0
  1  2  1  0  0  0  0
  4  3  1  0  0  0  0
 23  5  1  0  0  0  0
 24  6  1  0  0  0  0
 25  7  1  0  0  0  0
 10  9  1  0  0  0  0
 11  9  1  0  0  0  0
 13 12  2  0  0  0  0
 14 12  1  0  0  0  0
 15 14  1  0  0  0  0
 26 15  1  0  0  0  0
 27 15  1  0  0  0  0
 16 15  1  0  0  0  0
 28 16  1  0  0  0  0
 29 16  1  0  0  0  0
 17 16  1  0  0  0  0
 30 17  1  0  0  0  0
 31 17  1  0  0  0  0
 18 14  1  0  0  0  0
 32 18  1  0  0  0  0
 33 18  1  0  0  0  0
 19 17  1  0  0  0  0
 20 19  1  0  0  0  0
 34 19  1  0  0  0  0
 21 20  2  0  0  0  0
 22 20  1  0  0  0  0
 35 22  1  0  0  0  0
 36 22  1  0  0  0  0
  8  2  1  0  0  0  0
 19 18  1  0  0  0  0
M  END
>  <FittedScore>
-33.60

$$$$
