A71EV2A-x4538a_best-RMSD
  FITTED

 36 37     0  0  0  0  0  0  0999 V2000
    9.6025   10.5144   23.7031 BR   0  0  0  0  0  0  0  0  0  0  0  0
    8.1122   10.8315   24.8727 C    0  0  0  0  0  0  0  0  0  0  0  0
    7.3556    9.6990   25.2241 C    0  0  0  0  0  0  0  0  0  0  0  0
    7.6826    8.4809   24.7768 F    0  0  0  0  0  0  0  0  0  0  0  0
    6.2174    9.7997   26.0280 C    0  0  0  0  0  0  0  0  0  0  0  0
    5.8061   11.0484   26.4870 C    0  0  0  0  0  0  0  0  0  0  0  0
    6.5390   12.1912   26.1487 C    0  0  0  0  0  0  0  0  0  0  0  0
    7.7202   12.1195   25.3578 C    0  0  0  0  0  0  0  0  0  0  0  0
    8.4834   13.4403   25.0181 C    0  0  0  0  0  0  0  0  0  0  0  0
    8.1089   14.4123   25.8690 F    0  0  0  0  0  0  0  0  0  0  0  0
    9.7988   13.3097   25.2931 F    0  0  0  0  0  0  0  0  0  0  0  0
    8.2637   13.9413   23.5673 C    0  0  0  0  0  0  0  0  0  0  0  0
    7.4712   13.3490   22.8461 O    0  0  0  0  0  0  0  0  0  0  0  0
    9.0101   14.9987   23.0717 N    0  0  0  0  0  0  0  0  0  0  0  0
    9.8278   16.0027   23.8525 C    0  0  0  0  0  0  0  0  0  0  0  0
   11.3074   16.0664   23.3952 C    0  0  0  0  0  0  0  0  0  0  0  0
   11.3876   16.4313   21.8919 C    0  0  0  0  0  0  0  0  0  0  0  0
    9.0332   15.3607   21.6268 C    0  0  0  0  0  0  0  0  0  0  0  0
   10.4860   15.4670   21.0602 C    0  0  0  0  0  0  0  0  0  0  0  0
   10.4262   15.9025   19.6058 C    0  0  0  0  0  0  0  0  0  0  0  0
    9.9013   16.9436   19.2679 O    0  0  0  0  0  0  0  0  0  0  0  0
   10.7662   14.9591   18.7047 N    0  0  0  0  0  0  0  0  0  0  0  0
    5.6443    8.9092   26.2839 H    0  0  0  0  0  0  0  0  0  0  0  0
    4.9183   11.1391   27.1059 H    0  0  0  0  0  0  0  0  0  0  0  0
    6.1650   13.1428   26.5176 H    0  0  0  0  0  0  0  0  0  0  0  0
    9.3708   16.9926   23.7334 H    0  0  0  0  0  0  0  0  0  0  0  0
    9.8399   15.8477   24.9271 H    0  0  0  0  0  0  0  0  0  0  0  0
   11.8460   16.8096   23.9865 H    0  0  0  0  0  0  0  0  0  0  0  0
   11.7897   15.0985   23.5754 H    0  0  0  0  0  0  0  0  0  0  0  0
   11.0878   17.4757   21.7502 H    0  0  0  0  0  0  0  0  0  0  0  0
   12.4277   16.3507   21.5542 H    0  0  0  0  0  0  0  0  0  0  0  0
    8.4962   16.3068   21.5096 H    0  0  0  0  0  0  0  0  0  0  0  0
    8.4854   14.6617   20.9893 H    0  0  0  0  0  0  0  0  0  0  0  0
   10.9334   14.4659   21.1490 H    0  0  0  0  0  0  0  0  0  0  0  0
   10.7151   15.1714   17.7153 H    0  0  0  0  0  0  0  0  0  0  0  0
   10.9645   14.0024   18.9982 H    0  0  0  0  0  0  0  0  0  0  0  0
  9 12  1  0  0  0  0
  8  9  1  0  0  0  0
  7  8  2  0  0  0  0
  6  7  1  0  0  0  0
  5  6  2  0  0  0  0
  3  5  1  0  0  0  0
  2  3  2  0  0  0  0
  1  2  1  0  0  0  0
  4  3  1  0  0  0  0
 23  5  1  0  0  0  0
 24  6  1  0  0  0  0
 25  7  1  0  0  0  0
 10  9  1  0  0  0  0
 11  9  1  0  0  0  0
 13 12  2  0  0  0  0
 14 12  1  0  0  0  0
 15 14  1  0  0  0  0
 26 15  1  0  0  0  0
 27 15  1  0  0  0  0
 16 15  1  0  0  0  0
 28 16  1  0  0  0  0
 29 16  1  0  0  0  0
 17 16  1  0  0  0  0
 30 17  1  0  0  0  0
 31 17  1  0  0  0  0
 18 14  1  0  0  0  0
 32 18  1  0  0  0  0
 33 18  1  0  0  0  0
 19 17  1  0  0  0  0
 20 19  1  0  0  0  0
 34 19  1  0  0  0  0
 21 20  2  0  0  0  0
 22 20  1  0  0  0  0
 35 22  1  0  0  0  0
 36 22  1  0  0  0  0
  8  2  1  0  0  0  0
 19 18  1  0  0  0  0
M  END
>  <FittedScore>
-30.36

$$$$
