A71EV2A-x7353b_best-RMSD
  FITTED

 54 56     0  0  0  0  0  0  0999 V2000
    8.5802   15.4305   29.5923 C    0  0  0  0  0  0  0  0  0  0  0  0
    7.6907   15.3487   28.4530 O    0  0  0  0  0  0  0  0  0  0  0  0
    6.9922   14.1010   28.1946 C    0  0  0  0  0  0  0  0  0  0  0  0
    6.0567   14.2985   26.9690 C    0  0  0  0  0  0  0  0  0  0  0  0
    4.5945   14.7271   27.3500 C    0  0  0  0  0  0  0  0  0  0  0  0
    4.3122   13.4236   26.5359 C    0  0  0  0  0  0  0  0  0  0  0  0
    5.7157   13.1081   26.1323 N    0  0  0  0  0  0  0  0  0  0  0  0
    6.3638   11.8978   25.9506 C    0  0  0  0  0  0  0  0  0  0  0  0
    5.6841   10.7798   26.3270 N    0  0  0  0  0  0  0  0  0  0  0  0
    6.1904    9.5696   25.9837 C    0  0  0  0  0  0  0  0  0  0  0  0
    7.3264    9.3878   25.2655 N    0  0  0  0  0  0  0  0  0  0  0  0
    8.0564   10.4857   24.9307 C    0  0  0  0  0  0  0  0  0  0  0  0
    9.5385   10.2365   23.9640 S    0  0  0  0  0  0  0  0  0  0  0  0
    9.5734    8.4853   23.4773 C    0  0  0  0  0  0  0  0  0  0  0  0
    7.6321   11.7896   25.3065 C    0  0  0  0  0  0  0  0  0  0  0  0
    8.4698   13.0280   24.9348 C    0  0  0  0  0  0  0  0  0  0  0  0
    8.1045   13.6618   23.5856 C    0  0  0  0  0  0  0  0  0  0  0  0
    7.2955   13.1103   22.8528 O    0  0  0  0  0  0  0  0  0  0  0  0
    8.8152   14.7712   23.1697 N    0  0  0  0  0  0  0  0  0  0  0  0
    9.8106   15.5633   23.9806 C    0  0  0  0  0  0  0  0  0  0  0  0
   11.2575   15.4098   23.4402 C    0  0  0  0  0  0  0  0  0  0  0  0
   11.3465   15.8000   21.9424 C    0  0  0  0  0  0  0  0  0  0  0  0
   10.2344   15.0989   21.1058 C    0  0  0  0  0  0  0  0  0  0  0  0
   10.2736   15.5882   19.6647 C    0  0  0  0  0  0  0  0  0  0  0  0
   10.8339   14.7486   18.7771 N    0  0  0  0  0  0  0  0  0  0  0  0
    9.8401   16.6689   19.3171 O    0  0  0  0  0  0  0  0  0  0  0  0
    8.8223   15.2528   21.7514 C    0  0  0  0  0  0  0  0  0  0  0  0
    8.0414   15.2078   30.5167 H    0  0  0  0  0  0  0  0  0  0  0  0
    8.9704   16.4518   29.6504 H    0  0  0  0  0  0  0  0  0  0  0  0
    9.4198   14.7411   29.4838 H    0  0  0  0  0  0  0  0  0  0  0  0
    6.4276   13.7981   29.0813 H    0  0  0  0  0  0  0  0  0  0  0  0
    7.7337   13.3194   28.0062 H    0  0  0  0  0  0  0  0  0  0  0  0
    6.5132   15.0535   26.3141 H    0  0  0  0  0  0  0  0  0  0  0  0
    4.2455   15.6589   26.8956 H    0  0  0  0  0  0  0  0  0  0  0  0
    4.3089   14.7014   28.4079 H    0  0  0  0  0  0  0  0  0  0  0  0
    3.6650   13.5766   25.6640 H    0  0  0  0  0  0  0  0  0  0  0  0
    3.8357   12.6424   27.1385 H    0  0  0  0  0  0  0  0  0  0  0  0
    5.6297    8.6825   26.2786 H    0  0  0  0  0  0  0  0  0  0  0  0
    8.6903    8.2400   22.8831 H    0  0  0  0  0  0  0  0  0  0  0  0
    9.6051    7.8471   24.3645 H    0  0  0  0  0  0  0  0  0  0  0  0
   10.4672    8.2923   22.8799 H    0  0  0  0  0  0  0  0  0  0  0  0
    9.5369   12.8032   24.9464 H    0  0  0  0  0  0  0  0  0  0  0  0
    8.3860   13.7592   25.7280 H    0  0  0  0  0  0  0  0  0  0  0  0
    9.8197   15.3200   25.0424 H    0  0  0  0  0  0  0  0  0  0  0  0
    9.5267   16.6214   23.9584 H    0  0  0  0  0  0  0  0  0  0  0  0
   11.5894   14.3740   23.5691 H    0  0  0  0  0  0  0  0  0  0  0  0
   11.9392   16.0358   24.0229 H    0  0  0  0  0  0  0  0  0  0  0  0
   12.3275   15.5112   21.5567 H    0  0  0  0  0  0  0  0  0  0  0  0
   11.2665   16.8865   21.8390 H    0  0  0  0  0  0  0  0  0  0  0  0
   10.4493   14.0250   21.1254 H    0  0  0  0  0  0  0  0  0  0  0  0
   11.0820   13.8017   19.0577 H    0  0  0  0  0  0  0  0  0  0  0  0
   10.8627   15.0045   17.7960 H    0  0  0  0  0  0  0  0  0  0  0  0
    8.0982   14.7235   21.1225 H    0  0  0  0  0  0  0  0  0  0  0  0
    8.5080   16.3006   21.7264 H    0  0  0  0  0  0  0  0  0  0  0  0
 16 17  1  0  0  0  0
 15 16  1  0  0  0  0
 12 15  2  0  0  0  0
 11 12  1  0  0  0  0
 10 11  2  0  0  0  0
  9 10  1  0  0  0  0
  8  9  2  0  0  0  0
  7  8  1  0  0  0  0
  6  7  1  0  0  0  0
  5  6  1  0  0  0  0
  4  5  1  0  0  0  0
  3  4  1  0  0  0  0
  2  3  1  0  0  0  0
  1  2  1  0  0  0  0
 28  1  1  0  0  0  0
 29  1  1  0  0  0  0
 30  1  1  0  0  0  0
 31  3  1  0  0  0  0
 32  3  1  0  0  0  0
 33  4  1  0  0  0  0
 34  5  1  0  0  0  0
 35  5  1  0  0  0  0
 36  6  1  0  0  0  0
 37  6  1  0  0  0  0
 38 10  1  0  0  0  0
 13 12  1  0  0  0  0
 14 13  1  0  0  0  0
 39 14  1  0  0  0  0
 40 14  1  0  0  0  0
 41 14  1  0  0  0  0
 42 16  1  0  0  0  0
 43 16  1  0  0  0  0
 18 17  2  0  0  0  0
 19 17  1  0  0  0  0
 20 19  1  0  0  0  0
 21 20  1  0  0  0  0
 44 20  1  0  0  0  0
 45 20  1  0  0  0  0
 22 21  1  0  0  0  0
 46 21  1  0  0  0  0
 47 21  1  0  0  0  0
 23 22  1  0  0  0  0
 48 22  1  0  0  0  0
 49 22  1  0  0  0  0
 24 23  1  0  0  0  0
 27 23  1  0  0  0  0
 50 23  1  0  0  0  0
 25 24  1  0  0  0  0
 26 24  2  0  0  0  0
 51 25  1  0  0  0  0
 52 25  1  0  0  0  0
 53 27  1  0  0  0  0
 54 27  1  0  0  0  0
  7  4  1  0  0  0  0
 15  8  1  0  0  0  0
 27 19  1  0  0  0  0
M  END
>  <FittedScore>
-35.61

$$$$
