A71EV2A-x7353b_lowest-energy
  FITTED

 54 56     0  0  0  0  0  0  0999 V2000
    5.1918   16.8424   24.9498 C    0  0  0  0  0  0  0  0  0  0  0  0
    5.3535   15.8201   25.9637 O    0  0  0  0  0  0  0  0  0  0  0  0
    4.2954   14.8141   26.0413 C    0  0  0  0  0  0  0  0  0  0  0  0
    4.6545   13.6261   26.9597 C    0  0  0  0  0  0  0  0  0  0  0  0
    4.6768   13.9775   28.4878 C    0  0  0  0  0  0  0  0  0  0  0  0
    6.1362   13.4704   28.2716 C    0  0  0  0  0  0  0  0  0  0  0  0
    6.0543   13.1218   26.8251 N    0  0  0  0  0  0  0  0  0  0  0  0
    6.5121   11.9506   26.2595 C    0  0  0  0  0  0  0  0  0  0  0  0
    5.8106   10.8108   26.5034 N    0  0  0  0  0  0  0  0  0  0  0  0
    6.2559    9.6436   25.9740 C    0  0  0  0  0  0  0  0  0  0  0  0
    7.3485    9.5314   25.1801 N    0  0  0  0  0  0  0  0  0  0  0  0
    8.0667   10.6616   24.9154 C    0  0  0  0  0  0  0  0  0  0  0  0
    9.4820   10.5089   23.8381 S    0  0  0  0  0  0  0  0  0  0  0  0
    9.6098    8.7401   23.4132 C    0  0  0  0  0  0  0  0  0  0  0  0
    7.6839   11.9223   25.4580 C    0  0  0  0  0  0  0  0  0  0  0  0
    8.4560   13.2135   25.1096 C    0  0  0  0  0  0  0  0  0  0  0  0
    8.1041   13.7849   23.7275 C    0  0  0  0  0  0  0  0  0  0  0  0
    7.3158   13.1853   23.0075 O    0  0  0  0  0  0  0  0  0  0  0  0
    8.8129   14.8817   23.2735 N    0  0  0  0  0  0  0  0  0  0  0  0
    9.8411   15.6702   24.0371 C    0  0  0  0  0  0  0  0  0  0  0  0
   11.2728   15.4545   23.4773 C    0  0  0  0  0  0  0  0  0  0  0  0
   11.3475   15.7914   21.9641 C    0  0  0  0  0  0  0  0  0  0  0  0
   10.1971   15.1104   21.1587 C    0  0  0  0  0  0  0  0  0  0  0  0
   10.2217   15.5945   19.7120 C    0  0  0  0  0  0  0  0  0  0  0  0
   10.8047   14.7682   18.8207 N    0  0  0  0  0  0  0  0  0  0  0  0
    9.7278   16.6460   19.3532 O    0  0  0  0  0  0  0  0  0  0  0  0
    8.8037   15.3239   21.8445 C    0  0  0  0  0  0  0  0  0  0  0  0
    5.1553   16.3992   23.9515 H    0  0  0  0  0  0  0  0  0  0  0  0
    6.0505   17.5167   24.9987 H    0  0  0  0  0  0  0  0  0  0  0  0
    4.2738   17.4102   25.1291 H    0  0  0  0  0  0  0  0  0  0  0  0
    4.1011   14.4175   25.0398 H    0  0  0  0  0  0  0  0  0  0  0  0
    3.3768   15.2980   26.3851 H    0  0  0  0  0  0  0  0  0  0  0  0
    3.9208   12.8395   26.7412 H    0  0  0  0  0  0  0  0  0  0  0  0
    4.0438   13.3562   29.1297 H    0  0  0  0  0  0  0  0  0  0  0  0
    4.5711   15.0330   28.7642 H    0  0  0  0  0  0  0  0  0  0  0  0
    6.4090   12.6190   28.9068 H    0  0  0  0  0  0  0  0  0  0  0  0
    6.8989   14.2386   28.4440 H    0  0  0  0  0  0  0  0  0  0  0  0
    5.6975    8.7338   26.1947 H    0  0  0  0  0  0  0  0  0  0  0  0
    9.7352    8.1476   24.3216 H    0  0  0  0  0  0  0  0  0  0  0  0
   10.4763    8.5791   22.7683 H    0  0  0  0  0  0  0  0  0  0  0  0
    8.7101    8.4212   22.8806 H    0  0  0  0  0  0  0  0  0  0  0  0
    9.5299   13.0215   25.1720 H    0  0  0  0  0  0  0  0  0  0  0  0
    8.2841   13.9817   25.8656 H    0  0  0  0  0  0  0  0  0  0  0  0
    9.8550   15.4626   25.1058 H    0  0  0  0  0  0  0  0  0  0  0  0
    9.5879   16.7344   23.9820 H    0  0  0  0  0  0  0  0  0  0  0  0
   11.5766   14.4159   23.6407 H    0  0  0  0  0  0  0  0  0  0  0  0
   11.9817   16.0834   24.0223 H    0  0  0  0  0  0  0  0  0  0  0  0
   12.3108   15.4523   21.5749 H    0  0  0  0  0  0  0  0  0  0  0  0
   11.3198   16.8778   21.8284 H    0  0  0  0  0  0  0  0  0  0  0  0
   10.3905   14.0282   21.1664 H    0  0  0  0  0  0  0  0  0  0  0  0
   10.7867   15.0034   17.8355 H    0  0  0  0  0  0  0  0  0  0  0  0
   11.0732   13.8256   19.1059 H    0  0  0  0  0  0  0  0  0  0  0  0
    8.0412   14.8108   21.2528 H    0  0  0  0  0  0  0  0  0  0  0  0
    8.5182   16.3808   21.8085 H    0  0  0  0  0  0  0  0  0  0  0  0
 16 17  1  0  0  0  0
 15 16  1  0  0  0  0
 12 15  2  0  0  0  0
 11 12  1  0  0  0  0
 10 11  2  0  0  0  0
  9 10  1  0  0  0  0
  8  9  2  0  0  0  0
  7  8  1  0  0  0  0
  6  7  1  0  0  0  0
  5  6  1  0  0  0  0
  4  5  1  0  0  0  0
  3  4  1  0  0  0  0
  2  3  1  0  0  0  0
  1  2  1  0  0  0  0
 28  1  1  0  0  0  0
 29  1  1  0  0  0  0
 30  1  1  0  0  0  0
 31  3  1  0  0  0  0
 32  3  1  0  0  0  0
 33  4  1  0  0  0  0
 34  5  1  0  0  0  0
 35  5  1  0  0  0  0
 36  6  1  0  0  0  0
 37  6  1  0  0  0  0
 38 10  1  0  0  0  0
 13 12  1  0  0  0  0
 14 13  1  0  0  0  0
 39 14  1  0  0  0  0
 40 14  1  0  0  0  0
 41 14  1  0  0  0  0
 42 16  1  0  0  0  0
 43 16  1  0  0  0  0
 18 17  2  0  0  0  0
 19 17  1  0  0  0  0
 20 19  1  0  0  0  0
 21 20  1  0  0  0  0
 44 20  1  0  0  0  0
 45 20  1  0  0  0  0
 22 21  1  0  0  0  0
 46 21  1  0  0  0  0
 47 21  1  0  0  0  0
 23 22  1  0  0  0  0
 48 22  1  0  0  0  0
 49 22  1  0  0  0  0
 24 23  1  0  0  0  0
 27 23  1  0  0  0  0
 50 23  1  0  0  0  0
 25 24  1  0  0  0  0
 26 24  2  0  0  0  0
 51 25  1  0  0  0  0
 52 25  1  0  0  0  0
 53 27  1  0  0  0  0
 54 27  1  0  0  0  0
  7  4  1  0  0  0  0
 15  8  1  0  0  0  0
 27 19  1  0  0  0  0
M  END
>  <FittedScore>
-36.91

$$$$
