A71EV2A-x4674a_best-RMSD
  FITTED

 43 45     0  0  0  0  0  0  0999 V2000
    7.5683   13.2679   22.5359 O    0  0  0  0  0  0  0  0  0  0  0  0
    8.3912   13.7542   23.2951 C    0  0  0  0  0  0  0  0  0  0  0  0
    8.9990   14.9647   23.0593 N    0  0  0  0  0  0  0  0  0  0  0  0
    9.9810   15.6879   23.9427 C    0  0  0  0  0  0  0  0  0  0  0  0
   11.4205   15.6933   23.3498 C    0  0  0  0  0  0  0  0  0  0  0  0
   11.4516   16.1434   21.8590 C    0  0  0  0  0  0  0  0  0  0  0  0
    8.9621   15.5989   21.7070 C    0  0  0  0  0  0  0  0  0  0  0  0
   10.3515   15.4171   21.0292 C    0  0  0  0  0  0  0  0  0  0  0  0
   10.3573   15.8569   19.5703 C    0  0  0  0  0  0  0  0  0  0  0  0
    9.9480   16.9419   19.1909 O    0  0  0  0  0  0  0  0  0  0  0  0
   10.6942   14.8791   18.7041 N    0  0  0  0  0  0  0  0  0  0  0  0
    8.9061   13.0090   24.3114 N    0  0  0  0  0  0  0  0  0  0  0  0
    8.4714   11.6889   24.6543 C    0  0  0  0  0  0  0  0  0  0  0  0
    7.4014   11.4685   25.5584 C    0  0  0  0  0  0  0  0  0  0  0  0
    6.7043   12.8598   26.4522 S    0  0  0  0  0  0  0  0  0  0  0  0
    5.1718   12.2132   27.1873 C    0  0  0  0  0  0  0  0  0  0  0  0
    5.3796   10.8079   27.7755 C    0  0  0  0  0  0  0  0  0  0  0  0
    5.7338    9.8023   26.6601 C    0  0  0  0  0  0  0  0  0  0  0  0
    6.9140   10.1480   25.7439 C    0  0  0  0  0  0  0  0  0  0  0  0
    7.5026    9.0977   25.0185 C    0  0  0  0  0  0  0  0  0  0  0  0
    8.5813    9.3199   24.1577 C    0  0  0  0  0  0  0  0  0  0  0  0
    9.0672   10.6144   23.9793 C    0  0  0  0  0  0  0  0  0  0  0  0
    9.6390   16.7206   24.0807 H    0  0  0  0  0  0  0  0  0  0  0  0
   10.0135   15.2784   24.9535 H    0  0  0  0  0  0  0  0  0  0  0  0
   12.0514   16.3626   23.9388 H    0  0  0  0  0  0  0  0  0  0  0  0
   11.8501   14.6911   23.4350 H    0  0  0  0  0  0  0  0  0  0  0  0
   11.3166   17.2293   21.7940 H    0  0  0  0  0  0  0  0  0  0  0  0
   12.4340   15.9220   21.4310 H    0  0  0  0  0  0  0  0  0  0  0  0
    8.7149   16.6601   21.7963 H    0  0  0  0  0  0  0  0  0  0  0  0
    8.1812   15.1919   21.0597 H    0  0  0  0  0  0  0  0  0  0  0  0
   10.5780   14.3421   21.0773 H    0  0  0  0  0  0  0  0  0  0  0  0
   10.8068   15.0893   17.7207 H    0  0  0  0  0  0  0  0  0  0  0  0
   10.8141   13.9206   19.0255 H    0  0  0  0  0  0  0  0  0  0  0  0
    9.7091   13.3557   24.8147 H    0  0  0  0  0  0  0  0  0  0  0  0
    4.4025   12.2018   26.4087 H    0  0  0  0  0  0  0  0  0  0  0  0
    4.8499   12.9089   27.9648 H    0  0  0  0  0  0  0  0  0  0  0  0
    4.4726   10.4848   28.2901 H    0  0  0  0  0  0  0  0  0  0  0  0
    6.1759   10.8221   28.5269 H    0  0  0  0  0  0  0  0  0  0  0  0
    4.8491    9.6551   26.0308 H    0  0  0  0  0  0  0  0  0  0  0  0
    5.9169    8.8365   27.1453 H    0  0  0  0  0  0  0  0  0  0  0  0
    7.1279    8.0806   25.1224 H    0  0  0  0  0  0  0  0  0  0  0  0
    9.0270    8.4910   23.6116 H    0  0  0  0  0  0  0  0  0  0  0  0
    9.8840   10.7823   23.2813 H    0  0  0  0  0  0  0  0  0  0  0  0
  2  1  2  0  0  0  0
  3  2  1  0  0  0  0
  4  3  1  0  0  0  0
 23  4  1  0  0  0  0
 24  4  1  0  0  0  0
  5  4  1  0  0  0  0
 25  5  1  0  0  0  0
 26  5  1  0  0  0  0
  6  5  1  0  0  0  0
 27  6  1  0  0  0  0
 28  6  1  0  0  0  0
  7  3  1  0  0  0  0
 29  7  1  0  0  0  0
 30  7  1  0  0  0  0
  8  6  1  0  0  0  0
  9  8  1  0  0  0  0
 31  8  1  0  0  0  0
 10  9  2  0  0  0  0
 11  9  1  0  0  0  0
 32 11  1  0  0  0  0
 33 11  1  0  0  0  0
 12  2  1  0  0  0  0
 34 12  1  0  0  0  0
 13 12  1  0  0  0  0
 22 13  1  0  0  0  0
 14 13  2  0  0  0  0
 15 14  1  0  0  0  0
 16 15  1  0  0  0  0
 35 16  1  0  0  0  0
 36 16  1  0  0  0  0
 17 16  1  0  0  0  0
 37 17  1  0  0  0  0
 38 17  1  0  0  0  0
 18 17  1  0  0  0  0
 39 18  1  0  0  0  0
 40 18  1  0  0  0  0
 19 14  1  0  0  0  0
 20 19  2  0  0  0  0
 41 20  1  0  0  0  0
 21 20  1  0  0  0  0
 42 21  1  0  0  0  0
 43 22  1  0  0  0  0
  8  7  1  0  0  0  0
 19 18  1  0  0  0  0
 22 21  2  0  0  0  0
M  END
>  <FittedScore>
-32.67

$$$$
