A71EV2A-x3571b_lowest-energy
  FITTED

 43 44     0  0  0  0  0  0  0999 V2000
    9.9375   16.7977   19.4346 O    0  0  0  0  0  0  0  0  0  0  0  0
   10.2975   15.6750   19.7445 C    0  0  0  0  0  0  0  0  0  0  0  0
   10.7651   14.8108   18.8198 N    0  0  0  0  0  0  0  0  0  0  0  0
   10.3027   15.1643   21.1812 C    0  0  0  0  0  0  0  0  0  0  0  0
   11.5187   15.8050   21.9249 C    0  0  0  0  0  0  0  0  0  0  0  0
   11.8476   15.0915   23.2657 C    0  0  0  0  0  0  0  0  0  0  0  0
   11.0177   15.5690   24.4854 C    0  0  0  0  0  0  0  0  0  0  0  0
    9.5037   15.8089   24.2334 C    0  0  0  0  0  0  0  0  0  0  0  0
    8.9121   15.3733   21.8614 C    0  0  0  0  0  0  0  0  0  0  0  0
    8.8354   14.8635   23.2704 N    0  0  0  0  0  0  0  0  0  0  0  0
    8.2091   13.6816   23.6159 C    0  0  0  0  0  0  0  0  0  0  0  0
    7.4955   13.0875   22.8256 O    0  0  0  0  0  0  0  0  0  0  0  0
    8.5130   13.0603   24.9927 C    0  0  0  0  0  0  0  0  0  0  0  0
    7.7213   11.7911   25.3316 C    0  0  0  0  0  0  0  0  0  0  0  0
    8.1180   10.5164   24.8545 C    0  0  0  0  0  0  0  0  0  0  0  0
    9.2275   10.4261   24.0211 O    0  0  0  0  0  0  0  0  0  0  0  0
    9.6836    9.2412   23.3300 C    0  0  0  0  0  0  0  0  0  0  0  0
    6.5812   11.8969   26.1514 C    0  0  0  0  0  0  0  0  0  0  0  0
    5.8621   10.7543   26.5264 C    0  0  0  0  0  0  0  0  0  0  0  0
    6.2615    9.5002   26.0654 C    0  0  0  0  0  0  0  0  0  0  0  0
    7.3782    9.3808   25.2350 C    0  0  0  0  0  0  0  0  0  0  0  0
   10.9500   13.8441   19.0814 H    0  0  0  0  0  0  0  0  0  0  0  0
   10.7777   15.0953   17.8447 H    0  0  0  0  0  0  0  0  0  0  0  0
   10.4585   14.0813   21.1664 H    0  0  0  0  0  0  0  0  0  0  0  0
   12.4090   15.7132   21.2926 H    0  0  0  0  0  0  0  0  0  0  0  0
   11.3771   16.8841   22.0710 H    0  0  0  0  0  0  0  0  0  0  0  0
   11.7343   14.0079   23.1521 H    0  0  0  0  0  0  0  0  0  0  0  0
   12.9090   15.2477   23.4899 H    0  0  0  0  0  0  0  0  0  0  0  0
   11.1392   14.8395   25.2859 H    0  0  0  0  0  0  0  0  0  0  0  0
   11.4563   16.4997   24.8551 H    0  0  0  0  0  0  0  0  0  0  0  0
    8.9824   15.8231   25.1909 H    0  0  0  0  0  0  0  0  0  0  0  0
    9.3843   16.8444   23.8991 H    0  0  0  0  0  0  0  0  0  0  0  0
    8.1584   14.8924   21.2280 H    0  0  0  0  0  0  0  0  0  0  0  0
    8.6195   16.4262   21.8257 H    0  0  0  0  0  0  0  0  0  0  0  0
    9.5832   12.8505   25.0516 H    0  0  0  0  0  0  0  0  0  0  0  0
    8.3174   13.7809   25.7852 H    0  0  0  0  0  0  0  0  0  0  0  0
   10.5272    9.5148   22.6935 H    0  0  0  0  0  0  0  0  0  0  0  0
    8.8965    8.8165   22.7014 H    0  0  0  0  0  0  0  0  0  0  0  0
   10.0204    8.5010   24.0558 H    0  0  0  0  0  0  0  0  0  0  0  0
    6.2523   12.8643   26.5189 H    0  0  0  0  0  0  0  0  0  0  0  0
    4.9914   10.8426   27.1660 H    0  0  0  0  0  0  0  0  0  0  0  0
    5.7184    8.6096   26.3526 H    0  0  0  0  0  0  0  0  0  0  0  0
    7.6634    8.3886   24.8924 H    0  0  0  0  0  0  0  0  0  0  0  0
 10 11  1  0  0  0  0
  8 10  1  0  0  0  0
  7  8  1  0  0  0  0
  6  7  1  0  0  0  0
  5  6  1  0  0  0  0
  4  5  1  0  0  0  0
  2  4  1  0  0  0  0
  1  2  2  0  0  0  0
  3  2  1  0  0  0  0
 22  3  1  0  0  0  0
 23  3  1  0  0  0  0
 24  4  1  0  0  0  0
 25  5  1  0  0  0  0
 26  5  1  0  0  0  0
 27  6  1  0  0  0  0
 28  6  1  0  0  0  0
 29  7  1  0  0  0  0
 30  7  1  0  0  0  0
 31  8  1  0  0  0  0
 32  8  1  0  0  0  0
  9  4  1  0  0  0  0
 33  9  1  0  0  0  0
 34  9  1  0  0  0  0
 12 11  2  0  0  0  0
 13 11  1  0  0  0  0
 35 13  1  0  0  0  0
 36 13  1  0  0  0  0
 14 13  1  0  0  0  0
 15 14  1  0  0  0  0
 21 15  2  0  0  0  0
 16 15  1  0  0  0  0
 17 16  1  0  0  0  0
 37 17  1  0  0  0  0
 38 17  1  0  0  0  0
 39 17  1  0  0  0  0
 18 14  2  0  0  0  0
 40 18  1  0  0  0  0
 19 18  1  0  0  0  0
 41 19  1  0  0  0  0
 20 19  2  0  0  0  0
 42 20  1  0  0  0  0
 43 21  1  0  0  0  0
 10  9  1  0  0  0  0
 21 20  1  0  0  0  0
M  END
>  <FittedScore>
-34.55

$$$$
