A71EV2A-x7475b_best-RMSD
  FITTED

 57 60     0  0  0  0  0  0  0999 V2000
   10.0940   16.6053   19.0716 O    0  0  0  0  0  0  0  0  0  0  0  0
   10.4393   15.5180   19.4761 C    0  0  0  0  0  0  0  0  0  0  0  0
   10.8997   14.6093   18.6122 N    0  0  0  0  0  0  0  0  0  0  0  0
   10.5970   15.1609   20.9457 C    0  0  0  0  0  0  0  0  0  0  0  0
   11.7266   16.0417   21.5493 C    0  0  0  0  0  0  0  0  0  0  0  0
   11.8404   15.7826   23.0594 C    0  0  0  0  0  0  0  0  0  0  0  0
   10.4842   16.0198   23.7474 C    0  0  0  0  0  0  0  0  0  0  0  0
    9.2590   15.2248   21.7634 C    0  0  0  0  0  0  0  0  0  0  0  0
    9.4801   15.0379   23.2433 N    0  0  0  0  0  0  0  0  0  0  0  0
    8.9947   14.0314   24.0411 C    0  0  0  0  0  0  0  0  0  0  0  0
    9.4588   13.8363   25.1507 O    0  0  0  0  0  0  0  0  0  0  0  0
    7.8590   13.1419   23.5350 C    0  0  0  0  0  0  0  0  0  0  0  0
    7.3153   12.1991   24.6234 C    0  0  0  0  0  0  0  0  0  0  0  0
    7.9390   10.9261   24.7859 C    0  0  0  0  0  0  0  0  0  0  0  0
    9.4734   10.4940   23.9584 S    0  0  0  0  0  0  0  0  0  0  0  0
    9.3093    8.7570   23.4641 C    0  0  0  0  0  0  0  0  0  0  0  0
    6.2253   12.5256   25.5040 C    0  0  0  0  0  0  0  0  0  0  0  0
    5.7873   11.5737   26.3935 N    0  0  0  0  0  0  0  0  0  0  0  0
    6.3872   10.3557   26.4155 C    0  0  0  0  0  0  0  0  0  0  0  0
    7.4378    9.9985   25.6440 N    0  0  0  0  0  0  0  0  0  0  0  0
    5.5174   13.7422   25.5391 N    0  0  0  0  0  0  0  0  0  0  0  0
    6.0673   15.1333   25.5005 C    0  0  0  0  0  0  0  0  0  0  0  0
    6.9033   15.6188   26.7004 C    0  0  0  0  0  0  0  0  0  0  0  0
    7.7056   14.7526   27.6306 C    0  0  0  0  0  0  0  0  0  0  0  0
    6.4685   15.4358   28.1283 C    0  0  0  0  0  0  0  0  0  0  0  0
    4.8390   16.0855   25.3892 C    0  0  0  0  0  0  0  0  0  0  0  0
    3.5911   15.1931   25.3490 C    0  0  0  0  0  0  0  0  0  0  0  0
    4.0533   13.7827   25.7373 C    0  0  0  0  0  0  0  0  0  0  0  0
   11.1507   13.6740   18.9324 H    0  0  0  0  0  0  0  0  0  0  0  0
   10.9078   14.8188   17.6201 H    0  0  0  0  0  0  0  0  0  0  0  0
   10.9463   14.1221   21.0226 H    0  0  0  0  0  0  0  0  0  0  0  0
   12.6799   15.7976   21.0720 H    0  0  0  0  0  0  0  0  0  0  0  0
   11.5465   17.1077   21.3656 H    0  0  0  0  0  0  0  0  0  0  0  0
   12.2034   14.7672   23.2472 H    0  0  0  0  0  0  0  0  0  0  0  0
   12.5871   16.4601   23.4824 H    0  0  0  0  0  0  0  0  0  0  0  0
   10.6287   15.9952   24.8295 H    0  0  0  0  0  0  0  0  0  0  0  0
   10.1351   17.0377   23.5445 H    0  0  0  0  0  0  0  0  0  0  0  0
    8.5741   14.4912   21.3387 H    0  0  0  0  0  0  0  0  0  0  0  0
    8.7743   16.1936   21.6044 H    0  0  0  0  0  0  0  0  0  0  0  0
    7.0415   13.7307   23.1209 H    0  0  0  0  0  0  0  0  0  0  0  0
    8.1991   12.5741   22.6671 H    0  0  0  0  0  0  0  0  0  0  0  0
   10.1836    8.4591   22.8837 H    0  0  0  0  0  0  0  0  0  0  0  0
    8.4089    8.6324   22.8589 H    0  0  0  0  0  0  0  0  0  0  0  0
    9.2424    8.1268   24.3502 H    0  0  0  0  0  0  0  0  0  0  0  0
    6.0000    9.6237   27.1177 H    0  0  0  0  0  0  0  0  0  0  0  0
    6.6412   15.3241   24.6029 H    0  0  0  0  0  0  0  0  0  0  0  0
    7.3742   16.5710   26.4658 H    0  0  0  0  0  0  0  0  0  0  0  0
    7.6802   13.6728   27.5367 H    0  0  0  0  0  0  0  0  0  0  0  0
    8.6695   15.1385   27.9504 H    0  0  0  0  0  0  0  0  0  0  0  0
    5.5939   14.8254   28.3323 H    0  0  0  0  0  0  0  0  0  0  0  0
    6.5817   16.2910   28.7884 H    0  0  0  0  0  0  0  0  0  0  0  0
    4.7498   16.8015   26.2139 H    0  0  0  0  0  0  0  0  0  0  0  0
    4.8931   16.6794   24.4709 H    0  0  0  0  0  0  0  0  0  0  0  0
    2.8263   15.5558   26.0414 H    0  0  0  0  0  0  0  0  0  0  0  0
    3.1582   15.1901   24.3433 H    0  0  0  0  0  0  0  0  0  0  0  0
    3.7811   13.5887   26.7795 H    0  0  0  0  0  0  0  0  0  0  0  0
    3.5393   13.0426   25.1178 H    0  0  0  0  0  0  0  0  0  0  0  0
 10 12  1  0  0  0  0
  9 10  1  0  0  0  0
  7  9  1  0  0  0  0
  6  7  1  0  0  0  0
  5  6  1  0  0  0  0
  4  5  1  0  0  0  0
  2  4  1  0  0  0  0
  1  2  2  0  0  0  0
  3  2  1  0  0  0  0
 29  3  1  0  0  0  0
 30  3  1  0  0  0  0
 31  4  1  0  0  0  0
 32  5  1  0  0  0  0
 33  5  1  0  0  0  0
 34  6  1  0  0  0  0
 35  6  1  0  0  0  0
 36  7  1  0  0  0  0
 37  7  1  0  0  0  0
  8  4  1  0  0  0  0
 38  8  1  0  0  0  0
 39  8  1  0  0  0  0
 11 10  2  0  0  0  0
 40 12  1  0  0  0  0
 41 12  1  0  0  0  0
 13 12  1  0  0  0  0
 14 13  1  0  0  0  0
 20 14  2  0  0  0  0
 15 14  1  0  0  0  0
 16 15  1  0  0  0  0
 42 16  1  0  0  0  0
 43 16  1  0  0  0  0
 44 16  1  0  0  0  0
 17 13  2  0  0  0  0
 18 17  1  0  0  0  0
 19 18  2  0  0  0  0
 45 19  1  0  0  0  0
 21 17  1  0  0  0  0
 28 21  1  0  0  0  0
 22 21  1  0  0  0  0
 23 22  1  0  0  0  0
 46 22  1  0  0  0  0
 25 23  1  0  0  0  0
 47 23  1  0  0  0  0
 24 23  1  0  0  0  0
 48 24  1  0  0  0  0
 49 24  1  0  0  0  0
 50 25  1  0  0  0  0
 51 25  1  0  0  0  0
 26 22  1  0  0  0  0
 52 26  1  0  0  0  0
 53 26  1  0  0  0  0
 27 26  1  0  0  0  0
 54 27  1  0  0  0  0
 55 27  1  0  0  0  0
 56 28  1  0  0  0  0
 57 28  1  0  0  0  0
  9  8  1  0  0  0  0
 20 19  1  0  0  0  0
 25 24  1  0  0  0  0
 28 27  1  0  0  0  0
M  END
>  <FittedScore>
-27.03

$$$$
