A71EV2A-x6738a_lowest-energy
  FITTED

 62 64     0  0  0  0  0  0  0999 V2000
    9.8166   16.6340   19.0747 O    0  0  0  0  0  0  0  0  0  0  0  0
   10.3019   15.5915   19.4721 C    0  0  0  0  0  0  0  0  0  0  0  0
   10.7320   14.6655   18.5976 N    0  0  0  0  0  0  0  0  0  0  0  0
   10.3642   15.1646   20.9389 C    0  0  0  0  0  0  0  0  0  0  0  0
   11.3909   16.0163   21.7354 C    0  0  0  0  0  0  0  0  0  0  0  0
   11.4385   15.5513   23.2118 C    0  0  0  0  0  0  0  0  0  0  0  0
   10.0168   15.4577   23.8455 C    0  0  0  0  0  0  0  0  0  0  0  0
    8.9653   15.1413   21.6299 C    0  0  0  0  0  0  0  0  0  0  0  0
    9.0249   14.6449   23.0484 N    0  0  0  0  0  0  0  0  0  0  0  0
    8.2090   13.6404   23.5371 C    0  0  0  0  0  0  0  0  0  0  0  0
    7.3482   13.1299   22.8343 O    0  0  0  0  0  0  0  0  0  0  0  0
    8.4020   13.1504   24.9832 C    0  0  0  0  0  0  0  0  0  0  0  0
    7.5278   11.9509   25.3913 C    0  0  0  0  0  0  0  0  0  0  0  0
    7.8994   10.6315   25.0163 C    0  0  0  0  0  0  0  0  0  0  0  0
    9.3456   10.3604   23.9895 S    0  0  0  0  0  0  0  0  0  0  0  0
    9.2943    8.6376   23.4350 C    0  0  0  0  0  0  0  0  0  0  0  0
    7.1596    9.5577   25.4230 N    0  0  0  0  0  0  0  0  0  0  0  0
    6.0737    9.7863   26.2118 C    0  0  0  0  0  0  0  0  0  0  0  0
    5.6336   11.0198   26.5872 N    0  0  0  0  0  0  0  0  0  0  0  0
    6.3309   12.1076   26.1515 C    0  0  0  0  0  0  0  0  0  0  0  0
    5.7812   13.3358   26.4629 N    0  0  0  0  0  0  0  0  0  0  0  0
    5.9769   14.0149   27.7404 C    0  0  0  0  0  0  0  0  0  0  0  0
    5.3096   15.3981   27.5645 C    0  0  0  0  0  0  0  0  0  0  0  0
    5.0501   14.1601   25.4985 C    0  0  0  0  0  0  0  0  0  0  0  0
    5.1062   15.6335   26.0268 C    0  0  0  0  0  0  0  0  0  0  0  0
    6.3455   16.4407   25.4486 C    0  0  0  0  0  0  0  0  0  0  0  0
    6.3511   16.7477   23.9274 C    0  0  0  0  0  0  0  0  0  0  0  0
    3.7329   16.3486   25.7193 C    0  0  0  0  0  0  0  0  0  0  0  0
    3.5856   17.8102   26.2124 C    0  0  0  0  0  0  0  0  0  0  0  0
   10.7094   14.8677   17.6047 H    0  0  0  0  0  0  0  0  0  0  0  0
   10.9765   13.7289   18.9195 H    0  0  0  0  0  0  0  0  0  0  0  0
   10.7282   14.1286   20.9895 H    0  0  0  0  0  0  0  0  0  0  0  0
   12.3851   15.8948   21.2939 H    0  0  0  0  0  0  0  0  0  0  0  0
   11.1385   17.0806   21.6816 H    0  0  0  0  0  0  0  0  0  0  0  0
   11.9372   14.5784   23.2732 H    0  0  0  0  0  0  0  0  0  0  0  0
   12.0475   16.2514   23.7922 H    0  0  0  0  0  0  0  0  0  0  0  0
   10.1663   15.0940   24.8599 H    0  0  0  0  0  0  0  0  0  0  0  0
    9.6194   16.4698   23.9670 H    0  0  0  0  0  0  0  0  0  0  0  0
    8.3081   14.5300   21.0073 H    0  0  0  0  0  0  0  0  0  0  0  0
    8.5270   16.1422   21.6210 H    0  0  0  0  0  0  0  0  0  0  0  0
    9.4501   12.8924   25.1502 H    0  0  0  0  0  0  0  0  0  0  0  0
    8.2510   13.9709   25.6754 H    0  0  0  0  0  0  0  0  0  0  0  0
    9.3688    7.9712   24.2960 H    0  0  0  0  0  0  0  0  0  0  0  0
   10.1227    8.4413   22.7551 H    0  0  0  0  0  0  0  0  0  0  0  0
    8.3537    8.4512   22.9140 H    0  0  0  0  0  0  0  0  0  0  0  0
    5.5056    8.9260   26.5602 H    0  0  0  0  0  0  0  0  0  0  0  0
    5.5084   13.4669   28.5616 H    0  0  0  0  0  0  0  0  0  0  0  0
    7.0382   14.1313   27.9761 H    0  0  0  0  0  0  0  0  0  0  0  0
    4.3533   15.3982   28.0996 H    0  0  0  0  0  0  0  0  0  0  0  0
    5.9168   16.1790   28.0349 H    0  0  0  0  0  0  0  0  0  0  0  0
    4.0230   13.7885   25.4371 H    0  0  0  0  0  0  0  0  0  0  0  0
    5.4409   14.0626   24.4890 H    0  0  0  0  0  0  0  0  0  0  0  0
    7.2716   15.9275   25.6924 H    0  0  0  0  0  0  0  0  0  0  0  0
    6.4395   17.3965   25.9711 H    0  0  0  0  0  0  0  0  0  0  0  0
    5.5451   17.4323   23.6579 H    0  0  0  0  0  0  0  0  0  0  0  0
    6.2556   15.8536   23.3132 H    0  0  0  0  0  0  0  0  0  0  0  0
    7.2837   17.2456   23.6532 H    0  0  0  0  0  0  0  0  0  0  0  0
    3.5395   16.3284   24.6422 H    0  0  0  0  0  0  0  0  0  0  0  0
    2.9140   15.7728   26.1603 H    0  0  0  0  0  0  0  0  0  0  0  0
    3.8089   17.9085   27.2776 H    0  0  0  0  0  0  0  0  0  0  0  0
    2.5584   18.1495   26.0603 H    0  0  0  0  0  0  0  0  0  0  0  0
    4.2357   18.4897   25.6567 H    0  0  0  0  0  0  0  0  0  0  0  0
 10 12  1  0  0  0  0
  9 10  1  0  0  0  0
  7  9  1  0  0  0  0
  6  7  1  0  0  0  0
  5  6  1  0  0  0  0
  4  5  1  0  0  0  0
  2  4  1  0  0  0  0
  1  2  2  0  0  0  0
  3  2  1  0  0  0  0
 30  3  1  0  0  0  0
 31  3  1  0  0  0  0
 32  4  1  0  0  0  0
 33  5  1  0  0  0  0
 34  5  1  0  0  0  0
 35  6  1  0  0  0  0
 36  6  1  0  0  0  0
 37  7  1  0  0  0  0
 38  7  1  0  0  0  0
  8  4  1  0  0  0  0
 39  8  1  0  0  0  0
 40  8  1  0  0  0  0
 11 10  2  0  0  0  0
 41 12  1  0  0  0  0
 42 12  1  0  0  0  0
 13 12  1  0  0  0  0
 14 13  1  0  0  0  0
 15 14  1  0  0  0  0
 16 15  1  0  0  0  0
 43 16  1  0  0  0  0
 44 16  1  0  0  0  0
 45 16  1  0  0  0  0
 17 14  2  0  0  0  0
 18 17  1  0  0  0  0
 46 18  1  0  0  0  0
 19 18  2  0  0  0  0
 20 19  1  0  0  0  0
 21 20  1  0  0  0  0
 22 21  1  0  0  0  0
 47 22  1  0  0  0  0
 48 22  1  0  0  0  0
 23 22  1  0  0  0  0
 49 23  1  0  0  0  0
 50 23  1  0  0  0  0
 24 21  1  0  0  0  0
 51 24  1  0  0  0  0
 52 24  1  0  0  0  0
 25 23  1  0  0  0  0
 26 25  1  0  0  0  0
 53 26  1  0  0  0  0
 54 26  1  0  0  0  0
 27 26  1  0  0  0  0
 55 27  1  0  0  0  0
 56 27  1  0  0  0  0
 57 27  1  0  0  0  0
 28 25  1  0  0  0  0
 58 28  1  0  0  0  0
 59 28  1  0  0  0  0
 29 28  1  0  0  0  0
 60 29  1  0  0  0  0
 61 29  1  0  0  0  0
 62 29  1  0  0  0  0
  9  8  1  0  0  0  0
 20 13  2  0  0  0  0
 25 24  1  0  0  0  0
M  END
>  <FittedScore>
-33.22

$$$$
