A71EV2A-x6738a_best-RMSD
  FITTED

 62 64     0  0  0  0  0  0  0999 V2000
    9.8540   16.5846   18.9937 O    0  0  0  0  0  0  0  0  0  0  0  0
   10.3395   15.5561   19.4172 C    0  0  0  0  0  0  0  0  0  0  0  0
   10.8572   14.6425   18.5758 N    0  0  0  0  0  0  0  0  0  0  0  0
   10.3577   15.1718   20.8857 C    0  0  0  0  0  0  0  0  0  0  0  0
   11.2733   16.1452   21.6800 C    0  0  0  0  0  0  0  0  0  0  0  0
   11.2810   15.7422   23.1723 C    0  0  0  0  0  0  0  0  0  0  0  0
    9.8388   15.6174   23.7373 C    0  0  0  0  0  0  0  0  0  0  0  0
    8.9249   15.0795   21.4984 C    0  0  0  0  0  0  0  0  0  0  0  0
    8.9421   14.6949   22.9541 N    0  0  0  0  0  0  0  0  0  0  0  0
    8.1606   13.6818   23.4786 C    0  0  0  0  0  0  0  0  0  0  0  0
    7.3040   13.1326   22.8008 O    0  0  0  0  0  0  0  0  0  0  0  0
    8.3973   13.1991   24.9252 C    0  0  0  0  0  0  0  0  0  0  0  0
    7.6362   11.9048   25.3157 C    0  0  0  0  0  0  0  0  0  0  0  0
    8.0864   10.6384   24.8440 C    0  0  0  0  0  0  0  0  0  0  0  0
    9.5322   10.4918   23.8053 S    0  0  0  0  0  0  0  0  0  0  0  0
    9.7465    8.7250   23.4436 C    0  0  0  0  0  0  0  0  0  0  0  0
    7.4328    9.4870   25.1672 N    0  0  0  0  0  0  0  0  0  0  0  0
    6.3610    9.5722   25.9941 C    0  0  0  0  0  0  0  0  0  0  0  0
    5.8637   10.7310   26.4910 N    0  0  0  0  0  0  0  0  0  0  0  0
    6.4723   11.9046   26.1404 C    0  0  0  0  0  0  0  0  0  0  0  0
    5.8708   13.0588   26.6173 N    0  0  0  0  0  0  0  0  0  0  0  0
    5.1798   14.0004   25.7336 C    0  0  0  0  0  0  0  0  0  0  0  0
    4.5130   15.0312   26.6579 C    0  0  0  0  0  0  0  0  0  0  0  0
    5.5238   13.2568   28.0305 C    0  0  0  0  0  0  0  0  0  0  0  0
    4.9374   14.7014   28.1321 C    0  0  0  0  0  0  0  0  0  0  0  0
    3.6420   14.7420   29.0402 C    0  0  0  0  0  0  0  0  0  0  0  0
    3.8255   14.4265   30.5485 C    0  0  0  0  0  0  0  0  0  0  0  0
    6.0216   15.7254   28.6761 C    0  0  0  0  0  0  0  0  0  0  0  0
    7.3595   15.8497   27.8895 C    0  0  0  0  0  0  0  0  0  0  0  0
   10.8460   14.8249   17.5784 H    0  0  0  0  0  0  0  0  0  0  0  0
   11.1285   13.7189   18.9237 H    0  0  0  0  0  0  0  0  0  0  0  0
   10.7991   14.1676   20.9793 H    0  0  0  0  0  0  0  0  0  0  0  0
   12.2907   16.0980   21.2789 H    0  0  0  0  0  0  0  0  0  0  0  0
   10.9349   17.1816   21.5688 H    0  0  0  0  0  0  0  0  0  0  0  0
   11.8148   14.7931   23.2856 H    0  0  0  0  0  0  0  0  0  0  0  0
   11.8367   16.4897   23.7417 H    0  0  0  0  0  0  0  0  0  0  0  0
    9.9397   15.3386   24.7835 H    0  0  0  0  0  0  0  0  0  0  0  0
    9.3770   16.6089   23.7596 H    0  0  0  0  0  0  0  0  0  0  0  0
    8.3637   14.3672   20.8859 H    0  0  0  0  0  0  0  0  0  0  0  0
    8.3983   16.0329   21.3884 H    0  0  0  0  0  0  0  0  0  0  0  0
    8.1487   14.0060   25.6087 H    0  0  0  0  0  0  0  0  0  0  0  0
    9.4644   13.0388   25.0981 H    0  0  0  0  0  0  0  0  0  0  0  0
    8.8929    8.3655   22.8642 H    0  0  0  0  0  0  0  0  0  0  0  0
    9.8414    8.1471   24.3667 H    0  0  0  0  0  0  0  0  0  0  0  0
   10.6558    8.5807   22.8538 H    0  0  0  0  0  0  0  0  0  0  0  0
    5.8755    8.6423   26.2727 H    0  0  0  0  0  0  0  0  0  0  0  0
    5.8520   14.5137   25.0454 H    0  0  0  0  0  0  0  0  0  0  0  0
    4.4304   13.4872   25.1225 H    0  0  0  0  0  0  0  0  0  0  0  0
    4.7860   16.0481   26.3611 H    0  0  0  0  0  0  0  0  0  0  0  0
    3.4304   14.9680   26.5050 H    0  0  0  0  0  0  0  0  0  0  0  0
    6.3949   13.1123   28.6771 H    0  0  0  0  0  0  0  0  0  0  0  0
    4.7887   12.5106   28.3526 H    0  0  0  0  0  0  0  0  0  0  0  0
    2.8960   14.0397   28.6519 H    0  0  0  0  0  0  0  0  0  0  0  0
    3.1758   15.7297   28.9614 H    0  0  0  0  0  0  0  0  0  0  0  0
    2.8647   14.1525   30.9918 H    0  0  0  0  0  0  0  0  0  0  0  0
    4.1992   15.2996   31.0871 H    0  0  0  0  0  0  0  0  0  0  0  0
    4.5146   13.5956   30.7159 H    0  0  0  0  0  0  0  0  0  0  0  0
    5.5712   16.7206   28.7504 H    0  0  0  0  0  0  0  0  0  0  0  0
    6.2953   15.4580   29.7017 H    0  0  0  0  0  0  0  0  0  0  0  0
    7.9504   16.6739   28.2966 H    0  0  0  0  0  0  0  0  0  0  0  0
    7.2029   16.0570   26.8302 H    0  0  0  0  0  0  0  0  0  0  0  0
    7.9592   14.9421   27.9781 H    0  0  0  0  0  0  0  0  0  0  0  0
 10 12  1  0  0  0  0
  9 10  1  0  0  0  0
  7  9  1  0  0  0  0
  6  7  1  0  0  0  0
  5  6  1  0  0  0  0
  4  5  1  0  0  0  0
  2  4  1  0  0  0  0
  1  2  2  0  0  0  0
  3  2  1  0  0  0  0
 30  3  1  0  0  0  0
 31  3  1  0  0  0  0
 32  4  1  0  0  0  0
 33  5  1  0  0  0  0
 34  5  1  0  0  0  0
 35  6  1  0  0  0  0
 36  6  1  0  0  0  0
 37  7  1  0  0  0  0
 38  7  1  0  0  0  0
  8  4  1  0  0  0  0
 39  8  1  0  0  0  0
 40  8  1  0  0  0  0
 11 10  2  0  0  0  0
 41 12  1  0  0  0  0
 42 12  1  0  0  0  0
 13 12  1  0  0  0  0
 14 13  1  0  0  0  0
 15 14  1  0  0  0  0
 16 15  1  0  0  0  0
 43 16  1  0  0  0  0
 44 16  1  0  0  0  0
 45 16  1  0  0  0  0
 17 14  2  0  0  0  0
 18 17  1  0  0  0  0
 46 18  1  0  0  0  0
 19 18  2  0  0  0  0
 20 19  1  0  0  0  0
 21 20  1  0  0  0  0
 22 21  1  0  0  0  0
 47 22  1  0  0  0  0
 48 22  1  0  0  0  0
 23 22  1  0  0  0  0
 49 23  1  0  0  0  0
 50 23  1  0  0  0  0
 24 21  1  0  0  0  0
 51 24  1  0  0  0  0
 52 24  1  0  0  0  0
 25 23  1  0  0  0  0
 26 25  1  0  0  0  0
 53 26  1  0  0  0  0
 54 26  1  0  0  0  0
 27 26  1  0  0  0  0
 55 27  1  0  0  0  0
 56 27  1  0  0  0  0
 57 27  1  0  0  0  0
 28 25  1  0  0  0  0
 58 28  1  0  0  0  0
 59 28  1  0  0  0  0
 29 28  1  0  0  0  0
 60 29  1  0  0  0  0
 61 29  1  0  0  0  0
 62 29  1  0  0  0  0
  9  8  1  0  0  0  0
 20 13  2  0  0  0  0
 25 24  1  0  0  0  0
M  END
>  <FittedScore>
-32.45

$$$$
