A71EV2A-x6934a_lowest-energy
  FITTED

 48 50     0  0  0  0  0  0  0999 V2000
    9.1127    8.4380   23.5577 C    0  0  0  0  0  0  0  0  0  0  0  0
    9.1303   10.2359   23.7452 S    0  0  0  0  0  0  0  0  0  0  0  0
    7.7379   10.7019   24.7795 C    0  0  0  0  0  0  0  0  0  0  0  0
    7.0357    9.7266   25.5150 C    0  0  0  0  0  0  0  0  0  0  0  0
    6.0599   10.0828   26.4466 C    0  0  0  0  0  0  0  0  0  0  0  0
    5.7727   11.4307   26.6608 C    0  0  0  0  0  0  0  0  0  0  0  0
    6.4197   12.4118   25.9035 C    0  0  0  0  0  0  0  0  0  0  0  0
    7.3665   12.0654   24.9052 C    0  0  0  0  0  0  0  0  0  0  0  0
    7.9021   13.1313   23.9064 C    0  0  0  0  0  0  0  0  0  0  0  0
    6.9007   14.1935   23.7309 N    0  0  0  0  0  0  0  0  0  0  0  0
    5.9625   14.2833   22.7612 C    0  0  0  0  0  0  0  0  0  0  0  0
    5.8967   13.4572   21.8642 O    0  0  0  0  0  0  0  0  0  0  0  0
    4.7910   15.1505   23.1769 C    0  0  0  0  0  0  0  0  0  0  0  0
    5.3612   16.5378   22.9314 C    0  0  0  0  0  0  0  0  0  0  0  0
    4.4792   15.8975   21.8983 C    0  0  0  0  0  0  0  0  0  0  0  0
    9.2619   13.7713   24.2223 C    0  0  0  0  0  0  0  0  0  0  0  0
    9.7736   13.6393   25.3174 O    0  0  0  0  0  0  0  0  0  0  0  0
    9.8401   14.5721   23.2605 N    0  0  0  0  0  0  0  0  0  0  0  0
   10.9470   15.5277   23.4880 C    0  0  0  0  0  0  0  0  0  0  0  0
   11.2832   16.2161   22.1418 C    0  0  0  0  0  0  0  0  0  0  0  0
   10.7353   15.2118   21.1154 C    0  0  0  0  0  0  0  0  0  0  0  0
   10.4247   15.7264   19.7197 C    0  0  0  0  0  0  0  0  0  0  0  0
   10.6478   14.8236   18.7494 N    0  0  0  0  0  0  0  0  0  0  0  0
    9.7749   16.7254   19.4900 O    0  0  0  0  0  0  0  0  0  0  0  0
    9.5020   14.6380   21.8222 C    0  0  0  0  0  0  0  0  0  0  0  0
    9.9009    8.1421   22.8591 H    0  0  0  0  0  0  0  0  0  0  0  0
    8.1436    8.1100   23.1765 H    0  0  0  0  0  0  0  0  0  0  0  0
    9.3095    7.9778   24.5272 H    0  0  0  0  0  0  0  0  0  0  0  0
    7.2402    8.6689   25.4170 H    0  0  0  0  0  0  0  0  0  0  0  0
    5.5513    9.3161   27.0222 H    0  0  0  0  0  0  0  0  0  0  0  0
    5.0412   11.7226   27.4074 H    0  0  0  0  0  0  0  0  0  0  0  0
    6.1476   13.4468   26.0930 H    0  0  0  0  0  0  0  0  0  0  0  0
    8.0024   12.6199   22.9501 H    0  0  0  0  0  0  0  0  0  0  0  0
    6.8110   14.8360   24.5154 H    0  0  0  0  0  0  0  0  0  0  0  0
    4.0445   14.9288   23.9349 H    0  0  0  0  0  0  0  0  0  0  0  0
    6.3930   16.7285   22.6331 H    0  0  0  0  0  0  0  0  0  0  0  0
    4.9369   17.3529   23.5132 H    0  0  0  0  0  0  0  0  0  0  0  0
    4.9382   15.6841   20.9330 H    0  0  0  0  0  0  0  0  0  0  0  0
    3.4715   16.2870   21.7981 H    0  0  0  0  0  0  0  0  0  0  0  0
   11.8255   15.0037   23.8744 H    0  0  0  0  0  0  0  0  0  0  0  0
   10.6461   16.2763   24.2258 H    0  0  0  0  0  0  0  0  0  0  0  0
   12.3607   16.3803   22.0218 H    0  0  0  0  0  0  0  0  0  0  0  0
   10.7760   17.1851   22.0692 H    0  0  0  0  0  0  0  0  0  0  0  0
   11.4844   14.4125   21.0383 H    0  0  0  0  0  0  0  0  0  0  0  0
   10.8970   13.8630   18.9608 H    0  0  0  0  0  0  0  0  0  0  0  0
   10.5273   15.0905   17.7896 H    0  0  0  0  0  0  0  0  0  0  0  0
    9.2880   13.6489   21.4100 H    0  0  0  0  0  0  0  0  0  0  0  0
    8.6239   15.2741   21.6776 H    0  0  0  0  0  0  0  0  0  0  0  0
  8  9  1  0  0  0  0
  7  8  2  0  0  0  0
  6  7  1  0  0  0  0
  5  6  2  0  0  0  0
  4  5  1  0  0  0  0
  3  4  2  0  0  0  0
  2  3  1  0  0  0  0
  1  2  1  0  0  0  0
 26  1  1  0  0  0  0
 27  1  1  0  0  0  0
 28  1  1  0  0  0  0
 29  4  1  0  0  0  0
 30  5  1  0  0  0  0
 31  6  1  0  0  0  0
 32  7  1  0  0  0  0
 10  9  1  0  0  0  0
 16  9  1  0  0  0  0
 33  9  1  0  0  0  0
 11 10  1  0  0  0  0
 34 10  1  0  0  0  0
 12 11  2  0  0  0  0
 13 11  1  0  0  0  0
 14 13  1  0  0  0  0
 35 13  1  0  0  0  0
 15 14  1  0  0  0  0
 36 14  1  0  0  0  0
 37 14  1  0  0  0  0
 38 15  1  0  0  0  0
 39 15  1  0  0  0  0
 17 16  2  0  0  0  0
 18 16  1  0  0  0  0
 19 18  1  0  0  0  0
 20 19  1  0  0  0  0
 40 19  1  0  0  0  0
 41 19  1  0  0  0  0
 21 20  1  0  0  0  0
 42 20  1  0  0  0  0
 43 20  1  0  0  0  0
 22 21  1  0  0  0  0
 25 21  1  0  0  0  0
 44 21  1  0  0  0  0
 23 22  1  0  0  0  0
 24 22  2  0  0  0  0
 45 23  1  0  0  0  0
 46 23  1  0  0  0  0
 47 25  1  0  0  0  0
 48 25  1  0  0  0  0
  8  3  1  0  0  0  0
 15 13  1  0  0  0  0
 25 18  1  0  0  0  0
M  END
>  <FittedScore>
-36.28

$$$$
