A71EV2A-x6934a_best-RMSD
  FITTED

 48 50     0  0  0  0  0  0  0999 V2000
    9.1377    8.4690   23.4587 C    0  0  0  0  0  0  0  0  0  0  0  0
    9.1498   10.2481   23.7659 S    0  0  0  0  0  0  0  0  0  0  0  0
    7.7531   10.6711   24.8078 C    0  0  0  0  0  0  0  0  0  0  0  0
    7.0553    9.6722   25.5193 C    0  0  0  0  0  0  0  0  0  0  0  0
    6.0924   10.0082   26.4742 C    0  0  0  0  0  0  0  0  0  0  0  0
    5.8216   11.3483   26.7465 C    0  0  0  0  0  0  0  0  0  0  0  0
    6.4674   12.3529   26.0143 C    0  0  0  0  0  0  0  0  0  0  0  0
    7.3871   12.0292   24.9821 C    0  0  0  0  0  0  0  0  0  0  0  0
    7.8820   13.1067   23.9739 C    0  0  0  0  0  0  0  0  0  0  0  0
    6.8666   14.1574   23.8389 N    0  0  0  0  0  0  0  0  0  0  0  0
    5.9241   14.2693   22.8711 C    0  0  0  0  0  0  0  0  0  0  0  0
    5.8527   13.4518   21.9744 O    0  0  0  0  0  0  0  0  0  0  0  0
    4.7699   15.1659   23.2775 C    0  0  0  0  0  0  0  0  0  0  0  0
    5.3730   16.5410   23.0332 C    0  0  0  0  0  0  0  0  0  0  0  0
    4.4904   15.9179   21.9935 C    0  0  0  0  0  0  0  0  0  0  0  0
    9.2473   13.7486   24.2518 C    0  0  0  0  0  0  0  0  0  0  0  0
    9.7933   13.6158   25.3263 O    0  0  0  0  0  0  0  0  0  0  0  0
    9.8057   14.5414   23.2690 N    0  0  0  0  0  0  0  0  0  0  0  0
   10.9761   15.4364   23.4535 C    0  0  0  0  0  0  0  0  0  0  0  0
   11.2921   16.1222   22.1043 C    0  0  0  0  0  0  0  0  0  0  0  0
   10.6875   15.1124   21.1257 C    0  0  0  0  0  0  0  0  0  0  0  0
   10.4325   15.6440   19.7287 C    0  0  0  0  0  0  0  0  0  0  0  0
   10.7959   14.8129   18.7373 N    0  0  0  0  0  0  0  0  0  0  0  0
    9.8035   16.6554   19.4958 O    0  0  0  0  0  0  0  0  0  0  0  0
    9.4154   14.6372   21.8433 C    0  0  0  0  0  0  0  0  0  0  0  0
    9.3816    7.9365   24.3762 H    0  0  0  0  0  0  0  0  0  0  0  0
    9.8923    8.2431   22.7065 H    0  0  0  0  0  0  0  0  0  0  0  0
    8.1621    8.1591   23.0851 H    0  0  0  0  0  0  0  0  0  0  0  0
    7.2764    8.6233   25.3874 H    0  0  0  0  0  0  0  0  0  0  0  0
    5.5828    9.2224   27.0286 H    0  0  0  0  0  0  0  0  0  0  0  0
    5.1105   11.6135   27.5228 H    0  0  0  0  0  0  0  0  0  0  0  0
    6.2213   13.3832   26.2524 H    0  0  0  0  0  0  0  0  0  0  0  0
    7.9512   12.6026   23.0115 H    0  0  0  0  0  0  0  0  0  0  0  0
    6.7770   14.7669   24.6456 H    0  0  0  0  0  0  0  0  0  0  0  0
    4.0160   14.9693   24.0340 H    0  0  0  0  0  0  0  0  0  0  0  0
    6.4104   16.7073   22.7495 H    0  0  0  0  0  0  0  0  0  0  0  0
    4.9602   17.3639   23.6080 H    0  0  0  0  0  0  0  0  0  0  0  0
    4.9564   15.6857   21.0350 H    0  0  0  0  0  0  0  0  0  0  0  0
    3.4936   16.3354   21.8782 H    0  0  0  0  0  0  0  0  0  0  0  0
   11.8461   14.8574   23.7809 H    0  0  0  0  0  0  0  0  0  0  0  0
   10.7515   16.1960   24.2134 H    0  0  0  0  0  0  0  0  0  0  0  0
   12.3669   16.2573   21.9359 H    0  0  0  0  0  0  0  0  0  0  0  0
   10.7975   17.1037   22.0347 H    0  0  0  0  0  0  0  0  0  0  0  0
   11.3804   14.2624   21.0695 H    0  0  0  0  0  0  0  0  0  0  0  0
   10.7106   15.0994   17.7753 H    0  0  0  0  0  0  0  0  0  0  0  0
   11.1137   13.8659   18.9565 H    0  0  0  0  0  0  0  0  0  0  0  0
    9.1053   13.6798   21.4190 H    0  0  0  0  0  0  0  0  0  0  0  0
    8.5914   15.3519   21.7304 H    0  0  0  0  0  0  0  0  0  0  0  0
  8  9  1  0  0  0  0
  7  8  2  0  0  0  0
  6  7  1  0  0  0  0
  5  6  2  0  0  0  0
  4  5  1  0  0  0  0
  3  4  2  0  0  0  0
  2  3  1  0  0  0  0
  1  2  1  0  0  0  0
 26  1  1  0  0  0  0
 27  1  1  0  0  0  0
 28  1  1  0  0  0  0
 29  4  1  0  0  0  0
 30  5  1  0  0  0  0
 31  6  1  0  0  0  0
 32  7  1  0  0  0  0
 10  9  1  0  0  0  0
 16  9  1  0  0  0  0
 33  9  1  0  0  0  0
 11 10  1  0  0  0  0
 34 10  1  0  0  0  0
 12 11  2  0  0  0  0
 13 11  1  0  0  0  0
 14 13  1  0  0  0  0
 35 13  1  0  0  0  0
 15 14  1  0  0  0  0
 36 14  1  0  0  0  0
 37 14  1  0  0  0  0
 38 15  1  0  0  0  0
 39 15  1  0  0  0  0
 17 16  2  0  0  0  0
 18 16  1  0  0  0  0
 19 18  1  0  0  0  0
 20 19  1  0  0  0  0
 40 19  1  0  0  0  0
 41 19  1  0  0  0  0
 21 20  1  0  0  0  0
 42 20  1  0  0  0  0
 43 20  1  0  0  0  0
 22 21  1  0  0  0  0
 25 21  1  0  0  0  0
 44 21  1  0  0  0  0
 23 22  1  0  0  0  0
 24 22  2  0  0  0  0
 45 23  1  0  0  0  0
 46 23  1  0  0  0  0
 47 25  1  0  0  0  0
 48 25  1  0  0  0  0
  8  3  1  0  0  0  0
 15 13  1  0  0  0  0
 25 18  1  0  0  0  0
M  END
>  <FittedScore>
-35.94

$$$$
