A71EV2A-x7379a_best-RMSD
  FITTED

 46 49     0  0  0  0  0  0  0999 V2000
    9.4223    9.2711   23.3332 C    0  0  0  0  0  0  0  0  0  0  0  0
    9.1557   10.9609   23.9375 S    0  0  0  0  0  0  0  0  0  0  0  0
    7.5409   11.0316   24.7125 C    0  0  0  0  0  0  0  0  0  0  0  0
    6.8889    9.8633   25.1415 C    0  0  0  0  0  0  0  0  0  0  0  0
    5.6399    9.9247   25.7632 C    0  0  0  0  0  0  0  0  0  0  0  0
    4.9823   11.1639   25.9736 C    0  0  0  0  0  0  0  0  0  0  0  0
    3.7274   11.2373   26.6023 C    0  0  0  0  0  0  0  0  0  0  0  0
    2.8781   12.3389   26.7151 C    0  0  0  0  0  0  0  0  0  0  0  0
    1.6095   12.0030   27.4012 N    0  0  0  0  0  0  0  0  0  0  0  0
    1.8618   10.6938   27.6867 N    0  0  0  0  0  0  0  0  0  0  0  0
    3.0487   10.2136   27.2405 C    0  0  0  0  0  0  0  0  0  0  0  0
    5.6434   12.3333   25.5357 C    0  0  0  0  0  0  0  0  0  0  0  0
    6.9027   12.2750   24.9440 C    0  0  0  0  0  0  0  0  0  0  0  0
    7.5011   13.4837   24.6431 O    0  0  0  0  0  0  0  0  0  0  0  0
    7.7738   13.9011   23.3736 C    0  0  0  0  0  0  0  0  0  0  0  0
    7.2324   13.3797   22.4019 O    0  0  0  0  0  0  0  0  0  0  0  0
    8.7687   14.8441   23.2430 N    0  0  0  0  0  0  0  0  0  0  0  0
    8.9352   15.6272   21.9832 C    0  0  0  0  0  0  0  0  0  0  0  0
   10.0230   14.9727   21.0668 C    0  0  0  0  0  0  0  0  0  0  0  0
   10.2096   15.5994   19.6892 C    0  0  0  0  0  0  0  0  0  0  0  0
   11.0083   14.8869   18.8590 N    0  0  0  0  0  0  0  0  0  0  0  0
    9.6779   16.6189   19.3155 O    0  0  0  0  0  0  0  0  0  0  0  0
   11.4097   14.8740   21.7665 C    0  0  0  0  0  0  0  0  0  0  0  0
   11.2538   14.3623   23.1914 C    0  0  0  0  0  0  0  0  0  0  0  0
   11.3130   15.4024   24.2595 C    0  0  0  0  0  0  0  0  0  0  0  0
   10.0527   14.6422   24.0474 C    0  0  0  0  0  0  0  0  0  0  0  0
    9.3976    8.5517   24.1514 H    0  0  0  0  0  0  0  0  0  0  0  0
   10.4150    9.2214   22.8892 H    0  0  0  0  0  0  0  0  0  0  0  0
    8.6721    9.0387   22.5718 H    0  0  0  0  0  0  0  0  0  0  0  0
    7.3407    8.8856   25.0102 H    0  0  0  0  0  0  0  0  0  0  0  0
    5.1881    8.9819   26.0605 H    0  0  0  0  0  0  0  0  0  0  0  0
    3.0520   13.3422   26.3319 H    0  0  0  0  0  0  0  0  0  0  0  0
    1.1545   10.0658   28.0535 H    0  0  0  0  0  0  0  0  0  0  0  0
    3.3766    9.1852   27.3678 H    0  0  0  0  0  0  0  0  0  0  0  0
    5.2002   13.3164   25.6739 H    0  0  0  0  0  0  0  0  0  0  0  0
    9.2333   16.6555   22.2223 H    0  0  0  0  0  0  0  0  0  0  0  0
    7.9876   15.7177   21.4440 H    0  0  0  0  0  0  0  0  0  0  0  0
    9.6991   13.9472   20.8625 H    0  0  0  0  0  0  0  0  0  0  0  0
   10.8633   14.9589   17.8643 H    0  0  0  0  0  0  0  0  0  0  0  0
   11.4269   14.0281   19.2157 H    0  0  0  0  0  0  0  0  0  0  0  0
   11.9286   15.8377   21.7188 H    0  0  0  0  0  0  0  0  0  0  0  0
   12.0342   14.1569   21.2268 H    0  0  0  0  0  0  0  0  0  0  0  0
   11.7398   13.4018   23.3491 H    0  0  0  0  0  0  0  0  0  0  0  0
   11.3526   16.4499   23.9744 H    0  0  0  0  0  0  0  0  0  0  0  0
   11.9456   15.1417   25.0992 H    0  0  0  0  0  0  0  0  0  0  0  0
    9.7704   13.9439   24.8158 H    0  0  0  0  0  0  0  0  0  0  0  0
 13 14  1  0  0  0  0
 12 13  2  0  0  0  0
  6 12  1  0  0  0  0
  5  6  2  0  0  0  0
  4  5  1  0  0  0  0
  3  4  2  0  0  0  0
  2  3  1  0  0  0  0
  1  2  1  0  0  0  0
 27  1  1  0  0  0  0
 28  1  1  0  0  0  0
 29  1  1  0  0  0  0
 30  4  1  0  0  0  0
 31  5  1  0  0  0  0
  7  6  1  0  0  0  0
  8  7  1  0  0  0  0
  9  8  2  0  0  0  0
 32  8  1  0  0  0  0
 10  9  1  0  0  0  0
 11 10  1  0  0  0  0
 33 10  1  0  0  0  0
 34 11  1  0  0  0  0
 35 12  1  0  0  0  0
 15 14  1  0  0  0  0
 16 15  2  0  0  0  0
 17 15  1  0  0  0  0
 18 17  1  0  0  0  0
 19 18  1  0  0  0  0
 36 18  1  0  0  0  0
 37 18  1  0  0  0  0
 20 19  1  0  0  0  0
 23 19  1  0  0  0  0
 38 19  1  0  0  0  0
 21 20  1  0  0  0  0
 22 20  2  0  0  0  0
 39 21  1  0  0  0  0
 40 21  1  0  0  0  0
 41 23  1  0  0  0  0
 42 23  1  0  0  0  0
 24 23  1  0  0  0  0
 25 24  1  0  0  0  0
 43 24  1  0  0  0  0
 44 25  1  0  0  0  0
 45 25  1  0  0  0  0
 26 25  1  0  0  0  0
 46 26  1  0  0  0  0
 11  7  2  0  0  0  0
 13  3  1  0  0  0  0
 26 17  1  0  0  0  0
 26 24  1  0  0  0  0
M  END
>  <FittedScore>
-32.16

$$$$
