A71EV2A-x4388a_lowest-energy
  FITTED

 39 40     0  0  0  0  0  0  0999 V2000
    9.7122   16.6097   19.3272 O    0  0  0  0  0  0  0  0  0  0  0  0
   10.3124   15.6131   19.6763 C    0  0  0  0  0  0  0  0  0  0  0  0
   10.8294   14.7551   18.7705 N    0  0  0  0  0  0  0  0  0  0  0  0
   10.3894   15.1662   21.1195 C    0  0  0  0  0  0  0  0  0  0  0  0
   11.3673   16.0698   21.9178 C    0  0  0  0  0  0  0  0  0  0  0  0
   11.3889   15.6437   23.4054 C    0  0  0  0  0  0  0  0  0  0  0  0
    9.9558   15.5080   23.9963 C    0  0  0  0  0  0  0  0  0  0  0  0
    8.9757   15.1033   21.7745 C    0  0  0  0  0  0  0  0  0  0  0  0
    9.0444   14.6198   23.1870 N    0  0  0  0  0  0  0  0  0  0  0  0
    8.3415   13.5199   23.6416 C    0  0  0  0  0  0  0  0  0  0  0  0
    7.5142   12.9580   22.9366 O    0  0  0  0  0  0  0  0  0  0  0  0
    8.6715   12.9599   25.0320 C    0  0  0  0  0  0  0  0  0  0  0  0
    7.8587   11.7272   25.4266 C    0  0  0  0  0  0  0  0  0  0  0  0
    8.1536   10.4338   24.9315 C    0  0  0  0  0  0  0  0  0  0  0  0
    9.2194   10.2862   24.0518 O    0  0  0  0  0  0  0  0  0  0  0  0
    9.6501    9.0414   23.4492 C    0  0  0  0  0  0  0  0  0  0  0  0
    6.7481   11.8947   26.2717 C    0  0  0  0  0  0  0  0  0  0  0  0
    5.9667   10.7838   26.6131 C    0  0  0  0  0  0  0  0  0  0  0  0
    4.4422   10.9913   27.7385 BR   0  0  0  0  0  0  0  0  0  0  0  0
    6.3242    9.5262   26.1035 C    0  0  0  0  0  0  0  0  0  0  0  0
    7.3954    9.3554   25.2859 N    0  0  0  0  0  0  0  0  0  0  0  0
   10.7278   14.9511   17.7797 H    0  0  0  0  0  0  0  0  0  0  0  0
   11.1414   13.8277   19.0646 H    0  0  0  0  0  0  0  0  0  0  0  0
   10.7844   14.1447   21.1550 H    0  0  0  0  0  0  0  0  0  0  0  0
   12.3718   15.9772   21.4961 H    0  0  0  0  0  0  0  0  0  0  0  0
   11.0777   17.1219   21.8334 H    0  0  0  0  0  0  0  0  0  0  0  0
   11.9263   14.6955   23.5086 H    0  0  0  0  0  0  0  0  0  0  0  0
   11.9484   16.3811   23.9816 H    0  0  0  0  0  0  0  0  0  0  0  0
   10.0783   15.1978   25.0318 H    0  0  0  0  0  0  0  0  0  0  0  0
    9.5033   16.5028   24.0614 H    0  0  0  0  0  0  0  0  0  0  0  0
    8.3381   14.4710   21.1495 H    0  0  0  0  0  0  0  0  0  0  0  0
    8.4980   16.0878   21.7686 H    0  0  0  0  0  0  0  0  0  0  0  0
    9.7368   12.7180   25.0790 H    0  0  0  0  0  0  0  0  0  0  0  0
    8.5052   13.7365   25.7851 H    0  0  0  0  0  0  0  0  0  0  0  0
   10.4528    9.2649   22.7375 H    0  0  0  0  0  0  0  0  0  0  0  0
    8.8246    8.5734   22.9064 H    0  0  0  0  0  0  0  0  0  0  0  0
   10.0362    8.3608   24.2132 H    0  0  0  0  0  0  0  0  0  0  0  0
    6.4846   12.8836   26.6474 H    0  0  0  0  0  0  0  0  0  0  0  0
    5.7333    8.6452   26.3674 H    0  0  0  0  0  0  0  0  0  0  0  0
  9 10  1  0  0  0  0
  7  9  1  0  0  0  0
  6  7  1  0  0  0  0
  5  6  1  0  0  0  0
  4  5  1  0  0  0  0
  2  4  1  0  0  0  0
  1  2  2  0  0  0  0
  3  2  1  0  0  0  0
 22  3  1  0  0  0  0
 23  3  1  0  0  0  0
 24  4  1  0  0  0  0
 25  5  1  0  0  0  0
 26  5  1  0  0  0  0
 27  6  1  0  0  0  0
 28  6  1  0  0  0  0
 29  7  1  0  0  0  0
 30  7  1  0  0  0  0
  8  4  1  0  0  0  0
 31  8  1  0  0  0  0
 32  8  1  0  0  0  0
 11 10  2  0  0  0  0
 12 10  1  0  0  0  0
 33 12  1  0  0  0  0
 34 12  1  0  0  0  0
 13 12  1  0  0  0  0
 14 13  1  0  0  0  0
 21 14  2  0  0  0  0
 15 14  1  0  0  0  0
 16 15  1  0  0  0  0
 35 16  1  0  0  0  0
 36 16  1  0  0  0  0
 37 16  1  0  0  0  0
 17 13  2  0  0  0  0
 38 17  1  0  0  0  0
 18 17  1  0  0  0  0
 19 18  1  0  0  0  0
 20 18  2  0  0  0  0
 39 20  1  0  0  0  0
  9  8  1  0  0  0  0
 21 20  1  0  0  0  0
M  END
>  <FittedScore>
-33.97

$$$$
