A71EV2A-x4388a_best-RMSD
  FITTED

 39 40     0  0  0  0  0  0  0999 V2000
    9.7303   16.6265   19.3511 O    0  0  0  0  0  0  0  0  0  0  0  0
   10.3193   15.6141   19.6727 C    0  0  0  0  0  0  0  0  0  0  0  0
   10.8092   14.7607   18.7570 N    0  0  0  0  0  0  0  0  0  0  0  0
   10.4271   15.1460   21.1062 C    0  0  0  0  0  0  0  0  0  0  0  0
   11.4422   16.0158   21.8915 C    0  0  0  0  0  0  0  0  0  0  0  0
   11.5240   15.5262   23.3608 C    0  0  0  0  0  0  0  0  0  0  0  0
   10.1189   15.3924   24.0118 C    0  0  0  0  0  0  0  0  0  0  0  0
    9.0398   15.0896   21.8117 C    0  0  0  0  0  0  0  0  0  0  0  0
    9.1530   14.5561   23.2096 N    0  0  0  0  0  0  0  0  0  0  0  0
    8.4178   13.4819   23.6613 C    0  0  0  0  0  0  0  0  0  0  0  0
    7.5832   12.9367   22.9581 O    0  0  0  0  0  0  0  0  0  0  0  0
    8.6818   12.9505   25.0827 C    0  0  0  0  0  0  0  0  0  0  0  0
    7.8659   11.7091   25.4568 C    0  0  0  0  0  0  0  0  0  0  0  0
    8.1654   10.4265   24.9311 C    0  0  0  0  0  0  0  0  0  0  0  0
    9.2344   10.3112   24.0470 O    0  0  0  0  0  0  0  0  0  0  0  0
    9.6540    9.0878   23.3864 C    0  0  0  0  0  0  0  0  0  0  0  0
    6.7637   11.8565   26.3177 C    0  0  0  0  0  0  0  0  0  0  0  0
    6.0038   10.7291   26.6478 C    0  0  0  0  0  0  0  0  0  0  0  0
    4.5302   10.8818   27.8390 BR   0  0  0  0  0  0  0  0  0  0  0  0
    6.3544    9.4849   26.1023 C    0  0  0  0  0  0  0  0  0  0  0  0
    7.4108    9.3392   25.2596 N    0  0  0  0  0  0  0  0  0  0  0  0
   11.0904   13.8135   19.0164 H    0  0  0  0  0  0  0  0  0  0  0  0
   10.7544   15.0080   17.7770 H    0  0  0  0  0  0  0  0  0  0  0  0
   10.8079   14.1182   21.1000 H    0  0  0  0  0  0  0  0  0  0  0  0
   12.4277   15.9374   21.4283 H    0  0  0  0  0  0  0  0  0  0  0  0
   11.1562   17.0740   21.8637 H    0  0  0  0  0  0  0  0  0  0  0  0
   12.0375   14.5612   23.3964 H    0  0  0  0  0  0  0  0  0  0  0  0
   12.1276   16.2241   23.9425 H    0  0  0  0  0  0  0  0  0  0  0  0
   10.2861   15.0271   25.0259 H    0  0  0  0  0  0  0  0  0  0  0  0
    9.6883   16.3881   24.1504 H    0  0  0  0  0  0  0  0  0  0  0  0
    8.3668   14.4914   21.1899 H    0  0  0  0  0  0  0  0  0  0  0  0
    8.5806   16.0830   21.8524 H    0  0  0  0  0  0  0  0  0  0  0  0
    9.7415   12.7035   25.1999 H    0  0  0  0  0  0  0  0  0  0  0  0
    8.4752   13.7443   25.8074 H    0  0  0  0  0  0  0  0  0  0  0  0
   10.4444    9.3417   22.6751 H    0  0  0  0  0  0  0  0  0  0  0  0
    8.8227    8.6450   22.8289 H    0  0  0  0  0  0  0  0  0  0  0  0
   10.0473    8.3671   24.1063 H    0  0  0  0  0  0  0  0  0  0  0  0
    6.5031   12.8349   26.7199 H    0  0  0  0  0  0  0  0  0  0  0  0
    5.7702    8.5995   26.3502 H    0  0  0  0  0  0  0  0  0  0  0  0
  9 10  1  0  0  0  0
  7  9  1  0  0  0  0
  6  7  1  0  0  0  0
  5  6  1  0  0  0  0
  4  5  1  0  0  0  0
  2  4  1  0  0  0  0
  1  2  2  0  0  0  0
  3  2  1  0  0  0  0
 22  3  1  0  0  0  0
 23  3  1  0  0  0  0
 24  4  1  0  0  0  0
 25  5  1  0  0  0  0
 26  5  1  0  0  0  0
 27  6  1  0  0  0  0
 28  6  1  0  0  0  0
 29  7  1  0  0  0  0
 30  7  1  0  0  0  0
  8  4  1  0  0  0  0
 31  8  1  0  0  0  0
 32  8  1  0  0  0  0
 11 10  2  0  0  0  0
 12 10  1  0  0  0  0
 33 12  1  0  0  0  0
 34 12  1  0  0  0  0
 13 12  1  0  0  0  0
 14 13  1  0  0  0  0
 21 14  2  0  0  0  0
 15 14  1  0  0  0  0
 16 15  1  0  0  0  0
 35 16  1  0  0  0  0
 36 16  1  0  0  0  0
 37 16  1  0  0  0  0
 17 13  2  0  0  0  0
 38 17  1  0  0  0  0
 18 17  1  0  0  0  0
 19 18  1  0  0  0  0
 20 18  2  0  0  0  0
 39 20  1  0  0  0  0
  9  8  1  0  0  0  0
 21 20  1  0  0  0  0
M  END
>  <FittedScore>
-33.78

$$$$
