A71EV2A-x2304a_lowest-energy
  FITTED

 29 31     0  0  0  0  0  0  0999 V2000
   10.0973   14.3222   24.0239 O    0  0  0  0  0  0  0  0  0  0  0  0
   10.4229   13.3471   23.3798 C    0  0  0  0  0  0  0  0  0  0  0  0
   11.1213   13.4365   22.2124 N    0  0  0  0  0  0  0  0  0  0  0  0
   11.6419   14.5939   21.5346 C    0  0  0  0  0  0  0  0  0  0  0  0
   11.9504   14.6739   20.1943 C    0  0  0  0  0  0  0  0  0  0  0  0
   12.4050   15.9317   19.9380 N    0  0  0  0  0  0  0  0  0  0  0  0
   12.4083   16.7661   21.0165 N    0  0  0  0  0  0  0  0  0  0  0  0
   11.9240   15.8389   22.0561 C    0  0  0  0  0  0  0  0  0  0  0  0
    9.8489   12.0695   23.6865 C    0  0  0  0  0  0  0  0  0  0  0  0
   10.1354   10.9456   23.0951 N    0  0  0  0  0  0  0  0  0  0  0  0
    8.8205   11.7513   24.7264 C    0  0  0  0  0  0  0  0  0  0  0  0
    8.5693   10.4002   24.6124 C    0  0  0  0  0  0  0  0  0  0  0  0
    9.4026    9.9407   23.6431 N    0  0  0  0  0  0  0  0  0  0  0  0
    9.5999    8.5717   23.1649 C    0  0  0  0  0  0  0  0  0  0  0  0
    7.5986    9.7523   25.3919 C    0  0  0  0  0  0  0  0  0  0  0  0
    6.8967   10.5178   26.3382 C    0  0  0  0  0  0  0  0  0  0  0  0
    7.1577   11.8985   26.4711 C    0  0  0  0  0  0  0  0  0  0  0  0
    8.1169   12.5311   25.6574 C    0  0  0  0  0  0  0  0  0  0  0  0
   11.1007   12.6111   21.6235 H    0  0  0  0  0  0  0  0  0  0  0  0
   11.8440   13.8797   19.4574 H    0  0  0  0  0  0  0  0  0  0  0  0
   12.6536   16.2444   18.9952 H    0  0  0  0  0  0  0  0  0  0  0  0
   11.8256   16.1548   23.0920 H    0  0  0  0  0  0  0  0  0  0  0  0
    9.5180    8.5169   22.0780 H    0  0  0  0  0  0  0  0  0  0  0  0
    8.8681    7.8671   23.5659 H    0  0  0  0  0  0  0  0  0  0  0  0
   10.5883    8.1909   23.4390 H    0  0  0  0  0  0  0  0  0  0  0  0
    7.3918    8.6895   25.2800 H    0  0  0  0  0  0  0  0  0  0  0  0
    6.1441   10.0432   26.9650 H    0  0  0  0  0  0  0  0  0  0  0  0
    6.6131   12.4841   27.2025 H    0  0  0  0  0  0  0  0  0  0  0  0
    8.2975   13.5953   25.7582 H    0  0  0  0  0  0  0  0  0  0  0  0
  2  9  1  0  0  0  0
  3  2  1  0  0  0  0
 19  3  1  0  0  0  0
  1  2  2  0  0  0  0
  4  3  1  0  0  0  0
  8  4  1  0  0  0  0
  5  4  2  0  0  0  0
 20  5  1  0  0  0  0
  6  5  1  0  0  0  0
 21  6  1  0  0  0  0
  7  6  1  0  0  0  0
 22  8  1  0  0  0  0
 10  9  2  0  0  0  0
 11  9  1  0  0  0  0
 18 11  2  0  0  0  0
 12 11  1  0  0  0  0
 13 10  1  0  0  0  0
 14 13  1  0  0  0  0
 23 14  1  0  0  0  0
 24 14  1  0  0  0  0
 25 14  1  0  0  0  0
 15 12  2  0  0  0  0
 26 15  1  0  0  0  0
 16 15  1  0  0  0  0
 27 16  1  0  0  0  0
 17 16  2  0  0  0  0
 28 17  1  0  0  0  0
 29 18  1  0  0  0  0
  8  7  2  0  0  0  0
 13 12  1  0  0  0  0
 18 17  1  0  0  0  0
M  END
>  <FittedScore>
-33.34

$$$$
