A71EV2A-x2304a_best-RMSD
  FITTED

 29 31     0  0  0  0  0  0  0999 V2000
   10.1173   14.3479   24.0092 O    0  0  0  0  0  0  0  0  0  0  0  0
   10.4102   13.3607   23.3732 C    0  0  0  0  0  0  0  0  0  0  0  0
   11.1164   13.4205   22.2122 N    0  0  0  0  0  0  0  0  0  0  0  0
   11.6636   14.5549   21.5276 C    0  0  0  0  0  0  0  0  0  0  0  0
   11.9588   14.6231   20.1845 C    0  0  0  0  0  0  0  0  0  0  0  0
   12.4536   15.8648   19.9204 N    0  0  0  0  0  0  0  0  0  0  0  0
   12.4833   16.7007   20.9982 N    0  0  0  0  0  0  0  0  0  0  0  0
   11.9853   15.7904   22.0458 C    0  0  0  0  0  0  0  0  0  0  0  0
    9.8263   12.1020   23.7105 C    0  0  0  0  0  0  0  0  0  0  0  0
   10.1299   10.9563   23.1708 N    0  0  0  0  0  0  0  0  0  0  0  0
    8.7767   11.8351   24.7399 C    0  0  0  0  0  0  0  0  0  0  0  0
    8.5574   10.4739   24.7019 C    0  0  0  0  0  0  0  0  0  0  0  0
    9.4157    9.9732   23.7779 N    0  0  0  0  0  0  0  0  0  0  0  0
    9.5204    8.6029   23.2853 C    0  0  0  0  0  0  0  0  0  0  0  0
    7.5993    9.8495   25.5109 C    0  0  0  0  0  0  0  0  0  0  0  0
    6.8659   10.6504   26.4032 C    0  0  0  0  0  0  0  0  0  0  0  0
    7.0920   12.0430   26.4622 C    0  0  0  0  0  0  0  0  0  0  0  0
    8.0512   12.6509   25.6259 C    0  0  0  0  0  0  0  0  0  0  0  0
   11.1132   12.5855   21.6404 H    0  0  0  0  0  0  0  0  0  0  0  0
   11.8103   13.8323   19.4528 H    0  0  0  0  0  0  0  0  0  0  0  0
   12.6902   16.1712   18.9692 H    0  0  0  0  0  0  0  0  0  0  0  0
   11.9024   16.1012   23.0849 H    0  0  0  0  0  0  0  0  0  0  0  0
    9.4645    7.8827   24.1024 H    0  0  0  0  0  0  0  0  0  0  0  0
   10.4636    8.4122   22.7686 H    0  0  0  0  0  0  0  0  0  0  0  0
    8.7118    8.3745   22.5866 H    0  0  0  0  0  0  0  0  0  0  0  0
    7.4397    8.7730   25.4664 H    0  0  0  0  0  0  0  0  0  0  0  0
    6.1198   10.1914   27.0470 H    0  0  0  0  0  0  0  0  0  0  0  0
    6.5224   12.6518   27.1564 H    0  0  0  0  0  0  0  0  0  0  0  0
    8.2099   13.7232   25.6752 H    0  0  0  0  0  0  0  0  0  0  0  0
  2  9  1  0  0  0  0
  3  2  1  0  0  0  0
 19  3  1  0  0  0  0
  1  2  2  0  0  0  0
  4  3  1  0  0  0  0
  8  4  1  0  0  0  0
  5  4  2  0  0  0  0
 20  5  1  0  0  0  0
  6  5  1  0  0  0  0
 21  6  1  0  0  0  0
  7  6  1  0  0  0  0
 22  8  1  0  0  0  0
 10  9  2  0  0  0  0
 11  9  1  0  0  0  0
 18 11  2  0  0  0  0
 12 11  1  0  0  0  0
 13 10  1  0  0  0  0
 14 13  1  0  0  0  0
 23 14  1  0  0  0  0
 24 14  1  0  0  0  0
 25 14  1  0  0  0  0
 15 12  2  0  0  0  0
 26 15  1  0  0  0  0
 16 15  1  0  0  0  0
 27 16  1  0  0  0  0
 17 16  2  0  0  0  0
 28 17  1  0  0  0  0
 29 18  1  0  0  0  0
  8  7  2  0  0  0  0
 13 12  1  0  0  0  0
 18 17  1  0  0  0  0
M  END
>  <FittedScore>
-31.50

$$$$
