A71EV2A-x3392a_best-RMSD
  FITTED

 34 36     0  0  0  0  0  0  0999 V2000
    9.8212   13.7517   25.1705 O    0  0  0  0  0  0  0  0  0  0  0  0
    9.8299   12.9814   24.2341 C    0  0  0  0  0  0  0  0  0  0  0  0
    9.0501   11.8472   24.2167 N    0  0  0  0  0  0  0  0  0  0  0  0
    7.9406   11.5394   25.0915 C    0  0  0  0  0  0  0  0  0  0  0  0
    7.2231   12.3772   25.9718 C    0  0  0  0  0  0  0  0  0  0  0  0
    6.1711   11.8400   26.7329 C    0  0  0  0  0  0  0  0  0  0  0  0
    5.8245   10.4837   26.6100 C    0  0  0  0  0  0  0  0  0  0  0  0
    6.5215    9.6624   25.7107 C    0  0  0  0  0  0  0  0  0  0  0  0
    7.5768   10.2053   24.9663 C    0  0  0  0  0  0  0  0  0  0  0  0
    8.4466    9.4981   23.9661 C    0  0  0  0  0  0  0  0  0  0  0  0
    9.3458   10.6252   23.4153 C    0  0  0  0  0  0  0  0  0  0  0  0
   10.6483   13.1927   23.1667 N    0  0  0  0  0  0  0  0  0  0  0  0
   11.6316   14.2906   23.0295 C    0  0  0  0  0  0  0  0  0  0  0  0
   11.7842   14.8058   21.5850 C    0  0  0  0  0  0  0  0  0  0  0  0
   10.5384   15.3577   20.9175 C    0  0  0  0  0  0  0  0  0  0  0  0
    9.6083   16.3094   21.5340 N    0  0  0  0  0  0  0  0  0  0  0  0
    8.8150   16.6994   20.3648 C    0  0  0  0  0  0  0  0  0  0  0  0
    9.1961   16.0277   19.2286 O    0  0  0  0  0  0  0  0  0  0  0  0
   10.2490   15.2215   19.5738 C    0  0  0  0  0  0  0  0  0  0  0  0
    7.4582   13.4318   26.0765 H    0  0  0  0  0  0  0  0  0  0  0  0
    5.6239   12.4811   27.4193 H    0  0  0  0  0  0  0  0  0  0  0  0
    5.0103   10.0731   27.2029 H    0  0  0  0  0  0  0  0  0  0  0  0
    6.2470    8.6157   25.6000 H    0  0  0  0  0  0  0  0  0  0  0  0
    9.0406    8.7198   24.4530 H    0  0  0  0  0  0  0  0  0  0  0  0
    7.8470    9.0439   23.1726 H    0  0  0  0  0  0  0  0  0  0  0  0
   10.3993   10.3422   23.5052 H    0  0  0  0  0  0  0  0  0  0  0  0
    9.1217   10.8114   22.3610 H    0  0  0  0  0  0  0  0  0  0  0  0
   10.6065   12.5350   22.3933 H    0  0  0  0  0  0  0  0  0  0  0  0
   12.5984   13.9261   23.3827 H    0  0  0  0  0  0  0  0  0  0  0  0
   11.3667   15.1401   23.6648 H    0  0  0  0  0  0  0  0  0  0  0  0
   12.1953   13.9981   20.9733 H    0  0  0  0  0  0  0  0  0  0  0  0
   12.5369   15.5982   21.5844 H    0  0  0  0  0  0  0  0  0  0  0  0
    8.0142   17.4309   20.4228 H    0  0  0  0  0  0  0  0  0  0  0  0
   10.8042   14.6096   18.8687 H    0  0  0  0  0  0  0  0  0  0  0  0
  2  1  2  0  0  0  0
  3  2  1  0  0  0  0
 11  3  1  0  0  0  0
  4  3  1  0  0  0  0
  5  4  1  0  0  0  0
 20  5  1  0  0  0  0
  6  5  2  0  0  0  0
 21  6  1  0  0  0  0
  7  6  1  0  0  0  0
 22  7  1  0  0  0  0
  8  7  2  0  0  0  0
 23  8  1  0  0  0  0
  9  8  1  0  0  0  0
 10  9  1  0  0  0  0
 24 10  1  0  0  0  0
 25 10  1  0  0  0  0
 26 11  1  0  0  0  0
 27 11  1  0  0  0  0
 12  2  1  0  0  0  0
 28 12  1  0  0  0  0
 13 12  1  0  0  0  0
 29 13  1  0  0  0  0
 30 13  1  0  0  0  0
 14 13  1  0  0  0  0
 31 14  1  0  0  0  0
 32 14  1  0  0  0  0
 15 14  1  0  0  0  0
 19 15  2  0  0  0  0
 16 15  1  0  0  0  0
 17 16  2  0  0  0  0
 33 17  1  0  0  0  0
 18 17  1  0  0  0  0
 34 19  1  0  0  0  0
  9  4  2  0  0  0  0
 11 10  1  0  0  0  0
 19 18  1  0  0  0  0
M  END
>  <FittedScore>
-28.33

$$$$
