A71EV2A-x3392a_lowest-energy
  FITTED

 34 36     0  0  0  0  0  0  0999 V2000
    9.8048   13.8257   25.1165 O    0  0  0  0  0  0  0  0  0  0  0  0
    9.8605   13.0550   24.1814 C    0  0  0  0  0  0  0  0  0  0  0  0
    9.1147   11.8971   24.1470 N    0  0  0  0  0  0  0  0  0  0  0  0
    8.0016   11.5548   25.0009 C    0  0  0  0  0  0  0  0  0  0  0  0
    7.2669   12.3629   25.8942 C    0  0  0  0  0  0  0  0  0  0  0  0
    6.2237   11.7939   26.6434 C    0  0  0  0  0  0  0  0  0  0  0  0
    5.8993   10.4350   26.4903 C    0  0  0  0  0  0  0  0  0  0  0  0
    6.6147    9.6413   25.5811 C    0  0  0  0  0  0  0  0  0  0  0  0
    7.6636   10.2154   24.8527 C    0  0  0  0  0  0  0  0  0  0  0  0
    8.5505    9.5367   23.8505 C    0  0  0  0  0  0  0  0  0  0  0  0
    9.4622   10.6802   23.3568 C    0  0  0  0  0  0  0  0  0  0  0  0
   10.7090   13.2784   23.1391 N    0  0  0  0  0  0  0  0  0  0  0  0
   11.6662   14.4006   23.0337 C    0  0  0  0  0  0  0  0  0  0  0  0
   11.8679   14.8923   21.5905 C    0  0  0  0  0  0  0  0  0  0  0  0
   10.6348   15.3990   20.8710 C    0  0  0  0  0  0  0  0  0  0  0  0
    9.6210   16.2834   21.4629 N    0  0  0  0  0  0  0  0  0  0  0  0
    8.8437   16.6108   20.2627 C    0  0  0  0  0  0  0  0  0  0  0  0
    9.3143   15.9720   19.1379 O    0  0  0  0  0  0  0  0  0  0  0  0
   10.4085   15.2465   19.5162 C    0  0  0  0  0  0  0  0  0  0  0  0
    7.4826   13.4182   26.0241 H    0  0  0  0  0  0  0  0  0  0  0  0
    5.6671   12.4126   27.3396 H    0  0  0  0  0  0  0  0  0  0  0  0
    5.0871   10.0022   27.0708 H    0  0  0  0  0  0  0  0  0  0  0  0
    6.3594    8.5911   25.4535 H    0  0  0  0  0  0  0  0  0  0  0  0
    9.1300    8.7377   24.3214 H    0  0  0  0  0  0  0  0  0  0  0  0
    7.9658    9.1141   23.0280 H    0  0  0  0  0  0  0  0  0  0  0  0
   10.5120   10.4072   23.5039 H    0  0  0  0  0  0  0  0  0  0  0  0
    9.2974   10.8672   22.2913 H    0  0  0  0  0  0  0  0  0  0  0  0
   10.7086   12.6170   22.3675 H    0  0  0  0  0  0  0  0  0  0  0  0
   12.6270   14.0687   23.4383 H    0  0  0  0  0  0  0  0  0  0  0  0
   11.3462   15.2534   23.6428 H    0  0  0  0  0  0  0  0  0  0  0  0
   12.3224   14.0853   21.0093 H    0  0  0  0  0  0  0  0  0  0  0  0
   12.6023   15.7001   21.6041 H    0  0  0  0  0  0  0  0  0  0  0  0
    7.9861   17.2803   20.2891 H    0  0  0  0  0  0  0  0  0  0  0  0
   11.0292   14.6780   18.8291 H    0  0  0  0  0  0  0  0  0  0  0  0
  2  1  2  0  0  0  0
  3  2  1  0  0  0  0
 11  3  1  0  0  0  0
  4  3  1  0  0  0  0
  5  4  1  0  0  0  0
 20  5  1  0  0  0  0
  6  5  2  0  0  0  0
 21  6  1  0  0  0  0
  7  6  1  0  0  0  0
 22  7  1  0  0  0  0
  8  7  2  0  0  0  0
 23  8  1  0  0  0  0
  9  8  1  0  0  0  0
 10  9  1  0  0  0  0
 24 10  1  0  0  0  0
 25 10  1  0  0  0  0
 26 11  1  0  0  0  0
 27 11  1  0  0  0  0
 12  2  1  0  0  0  0
 28 12  1  0  0  0  0
 13 12  1  0  0  0  0
 29 13  1  0  0  0  0
 30 13  1  0  0  0  0
 14 13  1  0  0  0  0
 31 14  1  0  0  0  0
 32 14  1  0  0  0  0
 15 14  1  0  0  0  0
 19 15  2  0  0  0  0
 16 15  1  0  0  0  0
 17 16  2  0  0  0  0
 33 17  1  0  0  0  0
 18 17  1  0  0  0  0
 34 19  1  0  0  0  0
  9  4  2  0  0  0  0
 11 10  1  0  0  0  0
 19 18  1  0  0  0  0
M  END
>  <FittedScore>
-28.34

$$$$
