A71EV2A-x4695a_best-RMSD
  FITTED

 37 38     0  0  0  0  0  0  0999 V2000
   11.2333   15.1172   25.2624 O    0  0  0  0  0  0  0  0  0  0  0  0
   10.9831   15.2444   24.0770 C    0  0  0  0  0  0  0  0  0  0  0  0
   12.0943   15.7641   23.1583 C    0  0  0  0  0  0  0  0  0  0  0  0
   11.6566   16.1780   21.7317 C    0  0  0  0  0  0  0  0  0  0  0  0
   10.6673   15.1491   21.1346 C    0  0  0  0  0  0  0  0  0  0  0  0
   10.2914   15.5197   19.6962 C    0  0  0  0  0  0  0  0  0  0  0  0
    9.6644   16.5194   19.3954 O    0  0  0  0  0  0  0  0  0  0  0  0
   10.6356   14.6227   18.7487 N    0  0  0  0  0  0  0  0  0  0  0  0
    9.4412   14.9780   22.0752 C    0  0  0  0  0  0  0  0  0  0  0  0
    9.7975   14.8449   23.5279 N    0  0  0  0  0  0  0  0  0  0  0  0
    8.7148   14.2008   24.3389 C    0  0  0  0  0  0  0  0  0  0  0  0
    8.6884   12.6524   24.3421 C    0  0  0  0  0  0  0  0  0  0  0  0
    7.6363   11.9567   25.0035 C    0  0  0  0  0  0  0  0  0  0  0  0
    6.3123   12.8553   25.8233 S    0  0  0  0  0  0  0  0  0  0  0  0
    5.5630   11.7550   27.0750 C    0  0  0  0  0  0  0  0  0  0  0  0
    9.6865   11.8917   23.6808 C    0  0  0  0  0  0  0  0  0  0  0  0
    9.6192   10.4969   23.6314 C    0  0  0  0  0  0  0  0  0  0  0  0
    8.5743    9.8302   24.2659 C    0  0  0  0  0  0  0  0  0  0  0  0
    7.6085   10.5475   24.9745 C    0  0  0  0  0  0  0  0  0  0  0  0
   12.5740   16.6252   23.6347 H    0  0  0  0  0  0  0  0  0  0  0  0
   12.8627   14.9883   23.0773 H    0  0  0  0  0  0  0  0  0  0  0  0
   11.1980   17.1713   21.7515 H    0  0  0  0  0  0  0  0  0  0  0  0
   12.5450   16.2475   21.0996 H    0  0  0  0  0  0  0  0  0  0  0  0
   11.1702   14.1746   21.1239 H    0  0  0  0  0  0  0  0  0  0  0  0
   10.9706   13.6980   19.0012 H    0  0  0  0  0  0  0  0  0  0  0  0
   10.4913   14.8390   17.7690 H    0  0  0  0  0  0  0  0  0  0  0  0
    8.7678   15.8351   21.9737 H    0  0  0  0  0  0  0  0  0  0  0  0
    8.8751   14.1028   21.7331 H    0  0  0  0  0  0  0  0  0  0  0  0
    8.7750   14.5478   25.3758 H    0  0  0  0  0  0  0  0  0  0  0  0
    7.7493   14.5759   23.9878 H    0  0  0  0  0  0  0  0  0  0  0  0
    5.0022   10.9605   26.5806 H    0  0  0  0  0  0  0  0  0  0  0  0
    4.8690   12.3301   27.6894 H    0  0  0  0  0  0  0  0  0  0  0  0
    6.3350   11.3247   27.7151 H    0  0  0  0  0  0  0  0  0  0  0  0
   10.5323   12.3572   23.1819 H    0  0  0  0  0  0  0  0  0  0  0  0
   10.3877    9.9334   23.1073 H    0  0  0  0  0  0  0  0  0  0  0  0
    8.5206    8.7452   24.2217 H    0  0  0  0  0  0  0  0  0  0  0  0
    6.8264    9.9790   25.4609 H    0  0  0  0  0  0  0  0  0  0  0  0
  9 10  1  0  0  0  0
  5  9  1  0  0  0  0
  6  5  1  0  0  0  0
  4  5  1  0  0  0  0
  3  4  1  0  0  0  0
  2  3  1  0  0  0  0
  1  2  2  0  0  0  0
 20  3  1  0  0  0  0
 21  3  1  0  0  0  0
 22  4  1  0  0  0  0
 23  4  1  0  0  0  0
 24  5  1  0  0  0  0
  7  6  2  0  0  0  0
  8  6  1  0  0  0  0
 25  8  1  0  0  0  0
 26  8  1  0  0  0  0
 27  9  1  0  0  0  0
 28  9  1  0  0  0  0
 11 10  1  0  0  0  0
 29 11  1  0  0  0  0
 30 11  1  0  0  0  0
 12 11  1  0  0  0  0
 13 12  1  0  0  0  0
 19 13  2  0  0  0  0
 14 13  1  0  0  0  0
 15 14  1  0  0  0  0
 31 15  1  0  0  0  0
 32 15  1  0  0  0  0
 33 15  1  0  0  0  0
 16 12  2  0  0  0  0
 34 16  1  0  0  0  0
 17 16  1  0  0  0  0
 35 17  1  0  0  0  0
 18 17  2  0  0  0  0
 36 18  1  0  0  0  0
 37 19  1  0  0  0  0
 10  2  1  0  0  0  0
 19 18  1  0  0  0  0
M  END
>  <FittedScore>
-32.06

$$$$
