A71EV2A-x4695a_lowest-energy
  FITTED

 37 38     0  0  0  0  0  0  0999 V2000
   10.8193   14.8916   25.2802 O    0  0  0  0  0  0  0  0  0  0  0  0
   10.6785   15.1519   24.0995 C    0  0  0  0  0  0  0  0  0  0  0  0
   11.8964   15.6799   23.3253 C    0  0  0  0  0  0  0  0  0  0  0  0
   11.6211   16.1327   21.8688 C    0  0  0  0  0  0  0  0  0  0  0  0
   10.6571   15.1505   21.1586 C    0  0  0  0  0  0  0  0  0  0  0  0
   10.4180   15.5579   19.7061 C    0  0  0  0  0  0  0  0  0  0  0  0
    9.7934   16.5469   19.3740 O    0  0  0  0  0  0  0  0  0  0  0  0
   10.7838   14.6503   18.7883 N    0  0  0  0  0  0  0  0  0  0  0  0
    9.3250   15.0233   21.9555 C    0  0  0  0  0  0  0  0  0  0  0  0
    9.5200   14.8311   23.4200 N    0  0  0  0  0  0  0  0  0  0  0  0
    8.3793   14.1114   24.0633 C    0  0  0  0  0  0  0  0  0  0  0  0
    8.5301   12.5696   24.1407 C    0  0  0  0  0  0  0  0  0  0  0  0
    7.5895   11.7842   24.8662 C    0  0  0  0  0  0  0  0  0  0  0  0
    6.2196   12.5458   25.7433 S    0  0  0  0  0  0  0  0  0  0  0  0
    5.8482   11.4677   27.1711 C    0  0  0  0  0  0  0  0  0  0  0  0
    9.5786   11.8968   23.4635 C    0  0  0  0  0  0  0  0  0  0  0  0
    9.6703   10.5058   23.4635 C    0  0  0  0  0  0  0  0  0  0  0  0
    8.7244    9.7463   24.1418 C    0  0  0  0  0  0  0  0  0  0  0  0
    7.7026   10.3772   24.8577 C    0  0  0  0  0  0  0  0  0  0  0  0
   12.3193   16.5281   23.8717 H    0  0  0  0  0  0  0  0  0  0  0  0
   12.6688   14.9041   23.3196 H    0  0  0  0  0  0  0  0  0  0  0  0
   11.1904   17.1373   21.8765 H    0  0  0  0  0  0  0  0  0  0  0  0
   12.5665   16.1923   21.3207 H    0  0  0  0  0  0  0  0  0  0  0  0
   11.1353   14.1616   21.1841 H    0  0  0  0  0  0  0  0  0  0  0  0
   10.6231   14.8300   17.8085 H    0  0  0  0  0  0  0  0  0  0  0  0
   11.0778   13.7126   19.0620 H    0  0  0  0  0  0  0  0  0  0  0  0
    8.7078   15.9165   21.8162 H    0  0  0  0  0  0  0  0  0  0  0  0
    8.7614   14.1877   21.5240 H    0  0  0  0  0  0  0  0  0  0  0  0
    8.2438   14.5145   25.0722 H    0  0  0  0  0  0  0  0  0  0  0  0
    7.4435   14.3500   23.5468 H    0  0  0  0  0  0  0  0  0  0  0  0
    6.7661   11.2301   27.7132 H    0  0  0  0  0  0  0  0  0  0  0  0
    5.3772   10.5411   26.8349 H    0  0  0  0  0  0  0  0  0  0  0  0
    5.1653   11.9943   27.8372 H    0  0  0  0  0  0  0  0  0  0  0  0
   10.3432   12.4277   22.9069 H    0  0  0  0  0  0  0  0  0  0  0  0
   10.4787   10.0145   22.9265 H    0  0  0  0  0  0  0  0  0  0  0  0
    8.7935    8.6629   24.1236 H    0  0  0  0  0  0  0  0  0  0  0  0
    6.9827    9.7471   25.3685 H    0  0  0  0  0  0  0  0  0  0  0  0
  9 10  1  0  0  0  0
  5  9  1  0  0  0  0
  6  5  1  0  0  0  0
  4  5  1  0  0  0  0
  3  4  1  0  0  0  0
  2  3  1  0  0  0  0
  1  2  2  0  0  0  0
 20  3  1  0  0  0  0
 21  3  1  0  0  0  0
 22  4  1  0  0  0  0
 23  4  1  0  0  0  0
 24  5  1  0  0  0  0
  7  6  2  0  0  0  0
  8  6  1  0  0  0  0
 25  8  1  0  0  0  0
 26  8  1  0  0  0  0
 27  9  1  0  0  0  0
 28  9  1  0  0  0  0
 11 10  1  0  0  0  0
 29 11  1  0  0  0  0
 30 11  1  0  0  0  0
 12 11  1  0  0  0  0
 13 12  1  0  0  0  0
 19 13  2  0  0  0  0
 14 13  1  0  0  0  0
 15 14  1  0  0  0  0
 31 15  1  0  0  0  0
 32 15  1  0  0  0  0
 33 15  1  0  0  0  0
 16 12  2  0  0  0  0
 34 16  1  0  0  0  0
 17 16  1  0  0  0  0
 35 17  1  0  0  0  0
 18 17  2  0  0  0  0
 36 18  1  0  0  0  0
 37 19  1  0  0  0  0
 10  2  1  0  0  0  0
 19 18  1  0  0  0  0
M  END
>  <FittedScore>
-31.85

$$$$
