A71EV2A-x3186a_lowest-energy
  FITTED

 40 41     0  0  0  0  0  0  0999 V2000
    9.9381   16.7272   18.8794 O    0  0  0  0  0  0  0  0  0  0  0  0
   10.4544   15.7081   19.3067 C    0  0  0  0  0  0  0  0  0  0  0  0
   10.7684   14.7143   18.4583 N    0  0  0  0  0  0  0  0  0  0  0  0
   10.5405   15.3276   20.7849 C    0  0  0  0  0  0  0  0  0  0  0  0
   11.3372   16.3754   21.6066 C    0  0  0  0  0  0  0  0  0  0  0  0
   11.3973   15.9366   23.0915 C    0  0  0  0  0  0  0  0  0  0  0  0
    9.9929   15.6004   23.6709 C    0  0  0  0  0  0  0  0  0  0  0  0
    9.1348   15.0726   21.4117 C    0  0  0  0  0  0  0  0  0  0  0  0
    9.1901   14.6272   22.8480 N    0  0  0  0  0  0  0  0  0  0  0  0
    8.4752   13.5405   23.3220 C    0  0  0  0  0  0  0  0  0  0  0  0
    7.7087   12.9304   22.5951 O    0  0  0  0  0  0  0  0  0  0  0  0
    8.5968   13.1233   24.8007 C    0  0  0  0  0  0  0  0  0  0  0  0
    7.7233   11.9135   25.1790 C    0  0  0  0  0  0  0  0  0  0  0  0
    8.0650   10.5907   24.7930 C    0  0  0  0  0  0  0  0  0  0  0  0
    9.2550   10.3791   24.0958 O    0  0  0  0  0  0  0  0  0  0  0  0
    9.6940    9.1248   23.5224 C    0  0  0  0  0  0  0  0  0  0  0  0
    6.5166   12.1437   25.8720 C    0  0  0  0  0  0  0  0  0  0  0  0
    5.6670   11.0815   26.2020 C    0  0  0  0  0  0  0  0  0  0  0  0
    6.0082    9.7761   25.8297 C    0  0  0  0  0  0  0  0  0  0  0  0
    7.1854    9.5343   25.1165 C    0  0  0  0  0  0  0  0  0  0  0  0
   10.6943   14.8698   17.4604 H    0  0  0  0  0  0  0  0  0  0  0  0
   10.9754   13.7818   18.8148 H    0  0  0  0  0  0  0  0  0  0  0  0
   11.0895   14.3804   20.8828 H    0  0  0  0  0  0  0  0  0  0  0  0
   12.3510   16.4697   21.2045 H    0  0  0  0  0  0  0  0  0  0  0  0
   10.8676   17.3616   21.5234 H    0  0  0  0  0  0  0  0  0  0  0  0
   12.0477   15.0627   23.1857 H    0  0  0  0  0  0  0  0  0  0  0  0
   11.8615   16.7306   23.6810 H    0  0  0  0  0  0  0  0  0  0  0  0
   10.1634   15.2547   24.6876 H    0  0  0  0  0  0  0  0  0  0  0  0
    9.4178   16.5252   23.7705 H    0  0  0  0  0  0  0  0  0  0  0  0
    8.6369   14.3336   20.7762 H    0  0  0  0  0  0  0  0  0  0  0  0
    8.5244   15.9788   21.3429 H    0  0  0  0  0  0  0  0  0  0  0  0
    9.6401   12.8895   25.0392 H    0  0  0  0  0  0  0  0  0  0  0  0
    8.3218   13.9772   25.4288 H    0  0  0  0  0  0  0  0  0  0  0  0
    9.7993    8.3593   24.2945 H    0  0  0  0  0  0  0  0  0  0  0  0
   10.6734    9.2814   23.0689 H    0  0  0  0  0  0  0  0  0  0  0  0
    8.9857    8.7977   22.7584 H    0  0  0  0  0  0  0  0  0  0  0  0
    6.2320   13.1530   26.1602 H    0  0  0  0  0  0  0  0  0  0  0  0
    4.7429   11.2731   26.7393 H    0  0  0  0  0  0  0  0  0  0  0  0
    5.3504    8.9484   26.0841 H    0  0  0  0  0  0  0  0  0  0  0  0
    7.4013    8.5092   24.8236 H    0  0  0  0  0  0  0  0  0  0  0  0
  9 10  1  0  0  0  0
  7  9  1  0  0  0  0
  6  7  1  0  0  0  0
  5  6  1  0  0  0  0
  4  5  1  0  0  0  0
  2  4  1  0  0  0  0
  1  2  2  0  0  0  0
  3  2  1  0  0  0  0
 21  3  1  0  0  0  0
 22  3  1  0  0  0  0
 23  4  1  0  0  0  0
 24  5  1  0  0  0  0
 25  5  1  0  0  0  0
 26  6  1  0  0  0  0
 27  6  1  0  0  0  0
 28  7  1  0  0  0  0
 29  7  1  0  0  0  0
  8  4  1  0  0  0  0
 30  8  1  0  0  0  0
 31  8  1  0  0  0  0
 11 10  2  0  0  0  0
 12 10  1  0  0  0  0
 32 12  1  0  0  0  0
 33 12  1  0  0  0  0
 13 12  1  0  0  0  0
 14 13  1  0  0  0  0
 20 14  2  0  0  0  0
 15 14  1  0  0  0  0
 16 15  1  0  0  0  0
 34 16  1  0  0  0  0
 35 16  1  0  0  0  0
 36 16  1  0  0  0  0
 17 13  2  0  0  0  0
 37 17  1  0  0  0  0
 18 17  1  0  0  0  0
 38 18  1  0  0  0  0
 19 18  2  0  0  0  0
 39 19  1  0  0  0  0
 40 20  1  0  0  0  0
  9  8  1  0  0  0  0
 20 19  1  0  0  0  0
M  END
>  <FittedScore>
-32.58

$$$$
