A71EV2A-x3186a_best-RMSD
  FITTED

 40 41     0  0  0  0  0  0  0999 V2000
    9.9110   16.7587   18.8677 O    0  0  0  0  0  0  0  0  0  0  0  0
   10.3988   15.7342   19.3005 C    0  0  0  0  0  0  0  0  0  0  0  0
   10.7636   14.7460   18.4651 N    0  0  0  0  0  0  0  0  0  0  0  0
   10.4310   15.3460   20.7742 C    0  0  0  0  0  0  0  0  0  0  0  0
   11.3180   16.3134   21.6078 C    0  0  0  0  0  0  0  0  0  0  0  0
   11.3253   15.8599   23.0913 C    0  0  0  0  0  0  0  0  0  0  0  0
    9.8799   15.6970   23.6396 C    0  0  0  0  0  0  0  0  0  0  0  0
    8.9988   15.2167   21.3797 C    0  0  0  0  0  0  0  0  0  0  0  0
    9.0088   14.7754   22.8151 N    0  0  0  0  0  0  0  0  0  0  0  0
    8.2496   13.7156   23.2904 C    0  0  0  0  0  0  0  0  0  0  0  0
    7.5097   13.0751   22.5590 O    0  0  0  0  0  0  0  0  0  0  0  0
    8.3654   13.3240   24.7768 C    0  0  0  0  0  0  0  0  0  0  0  0
    7.5445   12.0940   25.2045 C    0  0  0  0  0  0  0  0  0  0  0  0
    7.9394   10.7760   24.8680 C    0  0  0  0  0  0  0  0  0  0  0  0
    9.1142   10.5939   24.1416 O    0  0  0  0  0  0  0  0  0  0  0  0
    9.5525    9.3548   23.5397 C    0  0  0  0  0  0  0  0  0  0  0  0
    6.3533   12.2943   25.9332 C    0  0  0  0  0  0  0  0  0  0  0  0
    5.5715   11.2026   26.3407 C    0  0  0  0  0  0  0  0  0  0  0  0
    5.9629    9.9035   26.0099 C    0  0  0  0  0  0  0  0  0  0  0  0
    7.1296    9.6899   25.2716 C    0  0  0  0  0  0  0  0  0  0  0  0
   10.9774   13.8202   18.8394 H    0  0  0  0  0  0  0  0  0  0  0  0
   10.7452   14.9028   17.4640 H    0  0  0  0  0  0  0  0  0  0  0  0
   10.8948   14.3565   20.8692 H    0  0  0  0  0  0  0  0  0  0  0  0
   12.3415   16.3227   21.2182 H    0  0  0  0  0  0  0  0  0  0  0  0
   10.9457   17.3434   21.5375 H    0  0  0  0  0  0  0  0  0  0  0  0
   11.8620   14.9128   23.1826 H    0  0  0  0  0  0  0  0  0  0  0  0
   11.8675   16.5890   23.6944 H    0  0  0  0  0  0  0  0  0  0  0  0
    9.9794   15.3914   24.6790 H    0  0  0  0  0  0  0  0  0  0  0  0
    9.4020   16.6817   23.6840 H    0  0  0  0  0  0  0  0  0  0  0  0
    8.4235   14.5414   20.7402 H    0  0  0  0  0  0  0  0  0  0  0  0
    8.4799   16.1770   21.3155 H    0  0  0  0  0  0  0  0  0  0  0  0
    9.4154   13.1343   25.0211 H    0  0  0  0  0  0  0  0  0  0  0  0
    8.0657   14.1775   25.3925 H    0  0  0  0  0  0  0  0  0  0  0  0
    8.7675    8.9342   22.9122 H    0  0  0  0  0  0  0  0  0  0  0  0
    9.8429    8.6447   24.3177 H    0  0  0  0  0  0  0  0  0  0  0  0
   10.4236    9.5755   22.9204 H    0  0  0  0  0  0  0  0  0  0  0  0
    6.0258   13.2995   26.1924 H    0  0  0  0  0  0  0  0  0  0  0  0
    4.6609   11.3737   26.9060 H    0  0  0  0  0  0  0  0  0  0  0  0
    5.3571    9.0573   26.3219 H    0  0  0  0  0  0  0  0  0  0  0  0
    7.4030    8.6681   25.0329 H    0  0  0  0  0  0  0  0  0  0  0  0
  9 10  1  0  0  0  0
  7  9  1  0  0  0  0
  6  7  1  0  0  0  0
  5  6  1  0  0  0  0
  4  5  1  0  0  0  0
  2  4  1  0  0  0  0
  1  2  2  0  0  0  0
  3  2  1  0  0  0  0
 21  3  1  0  0  0  0
 22  3  1  0  0  0  0
 23  4  1  0  0  0  0
 24  5  1  0  0  0  0
 25  5  1  0  0  0  0
 26  6  1  0  0  0  0
 27  6  1  0  0  0  0
 28  7  1  0  0  0  0
 29  7  1  0  0  0  0
  8  4  1  0  0  0  0
 30  8  1  0  0  0  0
 31  8  1  0  0  0  0
 11 10  2  0  0  0  0
 12 10  1  0  0  0  0
 32 12  1  0  0  0  0
 33 12  1  0  0  0  0
 13 12  1  0  0  0  0
 14 13  1  0  0  0  0
 20 14  2  0  0  0  0
 15 14  1  0  0  0  0
 16 15  1  0  0  0  0
 34 16  1  0  0  0  0
 35 16  1  0  0  0  0
 36 16  1  0  0  0  0
 17 13  2  0  0  0  0
 37 17  1  0  0  0  0
 18 17  1  0  0  0  0
 38 18  1  0  0  0  0
 19 18  2  0  0  0  0
 39 19  1  0  0  0  0
 40 20  1  0  0  0  0
  9  8  1  0  0  0  0
 20 19  1  0  0  0  0
M  END
>  <FittedScore>
-32.47

$$$$
