A71EV2A-x3993a_best-RMSD
  FITTED

 51 53     0  0  0  0  0  0  0999 V2000
   12.2003   17.6662   25.0995 O    0  0  0  0  0  0  0  0  0  0  0  0
   12.1526   16.4936   24.7714 C    0  0  0  0  0  0  0  0  0  0  0  0
   13.0046   15.5531   25.2655 N    0  0  0  0  0  0  0  0  0  0  0  0
   13.8531   15.8362   26.4529 C    0  0  0  0  0  0  0  0  0  0  0  0
   13.9877   14.8622   27.5851 C    0  0  0  0  0  0  0  0  0  0  0  0
   13.3609   16.2111   27.8181 C    0  0  0  0  0  0  0  0  0  0  0  0
   11.0422   16.0092   23.8350 C    0  0  0  0  0  0  0  0  0  0  0  0
   11.4487   16.0502   22.3367 C    0  0  0  0  0  0  0  0  0  0  0  0
   10.1916   15.7714   21.4603 C    0  0  0  0  0  0  0  0  0  0  0  0
   10.4800   15.9009   19.9571 C    0  0  0  0  0  0  0  0  0  0  0  0
   10.0383   16.8203   19.3070 O    0  0  0  0  0  0  0  0  0  0  0  0
   11.1220   14.9089   19.3090 N    0  0  0  0  0  0  0  0  0  0  0  0
    9.4860   14.4384   21.8695 C    0  0  0  0  0  0  0  0  0  0  0  0
   10.4336   14.6187   24.1821 C    0  0  0  0  0  0  0  0  0  0  0  0
    9.2539   14.2132   23.3400 N    0  0  0  0  0  0  0  0  0  0  0  0
    8.1617   13.5051   23.8107 C    0  0  0  0  0  0  0  0  0  0  0  0
    7.2756   13.1303   23.0581 O    0  0  0  0  0  0  0  0  0  0  0  0
    8.1229   13.0655   25.2893 C    0  0  0  0  0  0  0  0  0  0  0  0
    7.2527   11.8341   25.5867 C    0  0  0  0  0  0  0  0  0  0  0  0
    7.6356   10.5826   25.0265 C    0  0  0  0  0  0  0  0  0  0  0  0
    8.7878   10.5087   24.2359 O    0  0  0  0  0  0  0  0  0  0  0  0
    9.2518    9.3782   23.4707 C    0  0  0  0  0  0  0  0  0  0  0  0
    6.1140   11.9016   26.4408 C    0  0  0  0  0  0  0  0  0  0  0  0
    5.5638   13.3327   27.2641 CL   0  0  0  0  0  0  0  0  0  0  0  0
    5.3689   10.7439   26.7027 C    0  0  0  0  0  0  0  0  0  0  0  0
    5.7358    9.5314   26.1270 C    0  0  0  0  0  0  0  0  0  0  0  0
    6.8534    9.4447   25.2941 C    0  0  0  0  0  0  0  0  0  0  0  0
   12.9561   14.6010   24.9196 H    0  0  0  0  0  0  0  0  0  0  0  0
   14.7045   16.2880   25.9525 H    0  0  0  0  0  0  0  0  0  0  0  0
   13.3350   13.9916   27.5911 H    0  0  0  0  0  0  0  0  0  0  0  0
   14.9804   14.6873   27.9896 H    0  0  0  0  0  0  0  0  0  0  0  0
   12.2886   16.2558   27.9804 H    0  0  0  0  0  0  0  0  0  0  0  0
   13.9310   16.9467   28.3767 H    0  0  0  0  0  0  0  0  0  0  0  0
   10.2210   16.7222   23.9732 H    0  0  0  0  0  0  0  0  0  0  0  0
   11.8621   17.0342   22.0908 H    0  0  0  0  0  0  0  0  0  0  0  0
   12.2265   15.3055   22.1379 H    0  0  0  0  0  0  0  0  0  0  0  0
    9.4641   16.5568   21.6976 H    0  0  0  0  0  0  0  0  0  0  0  0
   11.2314   14.9474   18.3045 H    0  0  0  0  0  0  0  0  0  0  0  0
   11.3404   14.0433   19.7951 H    0  0  0  0  0  0  0  0  0  0  0  0
    8.5447   14.4142   21.3139 H    0  0  0  0  0  0  0  0  0  0  0  0
   10.0702   13.5865   21.5045 H    0  0  0  0  0  0  0  0  0  0  0  0
   10.1687   14.7002   25.2349 H    0  0  0  0  0  0  0  0  0  0  0  0
   11.1849   13.8268   24.1053 H    0  0  0  0  0  0  0  0  0  0  0  0
    9.1145   12.7752   25.6412 H    0  0  0  0  0  0  0  0  0  0  0  0
    7.8566   13.9307   25.8946 H    0  0  0  0  0  0  0  0  0  0  0  0
    9.5456    8.5750   24.1494 H    0  0  0  0  0  0  0  0  0  0  0  0
   10.1213    9.6883   22.8835 H    0  0  0  0  0  0  0  0  0  0  0  0
    8.4751    9.0295   22.7836 H    0  0  0  0  0  0  0  0  0  0  0  0
    4.5008   10.7760   27.3601 H    0  0  0  0  0  0  0  0  0  0  0  0
    5.1484    8.6376   26.3311 H    0  0  0  0  0  0  0  0  0  0  0  0
    7.1052    8.4738   24.8757 H    0  0  0  0  0  0  0  0  0  0  0  0
  7 14  1  0  0  0  0
  2  7  1  0  0  0  0
  1  2  2  0  0  0  0
  3  2  1  0  0  0  0
 28  3  1  0  0  0  0
  4  3  1  0  0  0  0
  6  4  1  0  0  0  0
 29  4  1  0  0  0  0
  5  4  1  0  0  0  0
 30  5  1  0  0  0  0
 31  5  1  0  0  0  0
 32  6  1  0  0  0  0
 33  6  1  0  0  0  0
 34  7  1  0  0  0  0
  8  7  1  0  0  0  0
 35  8  1  0  0  0  0
 36  8  1  0  0  0  0
  9  8  1  0  0  0  0
 10  9  1  0  0  0  0
 37  9  1  0  0  0  0
 11 10  2  0  0  0  0
 12 10  1  0  0  0  0
 38 12  1  0  0  0  0
 39 12  1  0  0  0  0
 13  9  1  0  0  0  0
 40 13  1  0  0  0  0
 41 13  1  0  0  0  0
 42 14  1  0  0  0  0
 43 14  1  0  0  0  0
 15 13  1  0  0  0  0
 16 15  1  0  0  0  0
 17 16  2  0  0  0  0
 18 16  1  0  0  0  0
 44 18  1  0  0  0  0
 45 18  1  0  0  0  0
 19 18  1  0  0  0  0
 20 19  1  0  0  0  0
 27 20  2  0  0  0  0
 21 20  1  0  0  0  0
 22 21  1  0  0  0  0
 46 22  1  0  0  0  0
 47 22  1  0  0  0  0
 48 22  1  0  0  0  0
 23 19  2  0  0  0  0
 24 23  1  0  0  0  0
 25 23  1  0  0  0  0
 49 25  1  0  0  0  0
 26 25  2  0  0  0  0
 50 26  1  0  0  0  0
 51 27  1  0  0  0  0
  6  5  1  0  0  0  0
 15 14  1  0  0  0  0
 27 26  1  0  0  0  0
M  END
>  <FittedScore>
-31.90

$$$$
