A71EV2A-x3993a_lowest-energy
  FITTED

 51 53     0  0  0  0  0  0  0999 V2000
   12.2421   17.6774   24.9250 O    0  0  0  0  0  0  0  0  0  0  0  0
   12.1894   16.5059   24.6008 C    0  0  0  0  0  0  0  0  0  0  0  0
   13.0071   15.5514   25.1260 N    0  0  0  0  0  0  0  0  0  0  0  0
   13.9269   15.8455   26.2499 C    0  0  0  0  0  0  0  0  0  0  0  0
   14.0164   14.9357   27.4358 C    0  0  0  0  0  0  0  0  0  0  0  0
   13.5553   16.3589   27.6087 C    0  0  0  0  0  0  0  0  0  0  0  0
   11.0686   16.0154   23.6755 C    0  0  0  0  0  0  0  0  0  0  0  0
   11.4217   16.0547   22.1572 C    0  0  0  0  0  0  0  0  0  0  0  0
   10.1147   15.7961   21.3455 C    0  0  0  0  0  0  0  0  0  0  0  0
   10.2672   15.9023   19.8247 C    0  0  0  0  0  0  0  0  0  0  0  0
    9.5029   16.5921   19.1921 O    0  0  0  0  0  0  0  0  0  0  0  0
   10.9207   14.9193   19.1670 N    0  0  0  0  0  0  0  0  0  0  0  0
    9.3866   14.4860   21.7818 C    0  0  0  0  0  0  0  0  0  0  0  0
   10.4699   14.6198   24.0336 C    0  0  0  0  0  0  0  0  0  0  0  0
    9.2387   14.2399   23.2571 N    0  0  0  0  0  0  0  0  0  0  0  0
    8.1746   13.5190   23.7663 C    0  0  0  0  0  0  0  0  0  0  0  0
    7.2661   13.1337   23.0463 O    0  0  0  0  0  0  0  0  0  0  0  0
    8.2129   13.0496   25.2317 C    0  0  0  0  0  0  0  0  0  0  0  0
    7.2833   11.8688   25.5639 C    0  0  0  0  0  0  0  0  0  0  0  0
    7.6049   10.5871   25.0356 C    0  0  0  0  0  0  0  0  0  0  0  0
    8.7208   10.4462   24.2014 O    0  0  0  0  0  0  0  0  0  0  0  0
    9.1580    9.2300   23.5495 C    0  0  0  0  0  0  0  0  0  0  0  0
    6.1403   12.0157   26.3996 C    0  0  0  0  0  0  0  0  0  0  0  0
    5.6016   13.5137   27.1027 CL   0  0  0  0  0  0  0  0  0  0  0  0
    5.3683   10.8978   26.7334 C    0  0  0  0  0  0  0  0  0  0  0  0
    5.7015    9.6421   26.2314 C    0  0  0  0  0  0  0  0  0  0  0  0
    6.7897    9.4890   25.3685 C    0  0  0  0  0  0  0  0  0  0  0  0
   12.9325   14.5928   24.8004 H    0  0  0  0  0  0  0  0  0  0  0  0
   14.7974   16.1540   25.6792 H    0  0  0  0  0  0  0  0  0  0  0  0
   13.2742   14.1454   27.5184 H    0  0  0  0  0  0  0  0  0  0  0  0
   15.0071   14.6663   27.7868 H    0  0  0  0  0  0  0  0  0  0  0  0
   12.5053   16.5348   27.8195 H    0  0  0  0  0  0  0  0  0  0  0  0
   14.2357   17.0554   28.0898 H    0  0  0  0  0  0  0  0  0  0  0  0
   10.2506   16.7306   23.8408 H    0  0  0  0  0  0  0  0  0  0  0  0
   11.8400   17.0296   21.8921 H    0  0  0  0  0  0  0  0  0  0  0  0
   12.1785   15.3028   21.9212 H    0  0  0  0  0  0  0  0  0  0  0  0
    9.4320   16.6050   21.6242 H    0  0  0  0  0  0  0  0  0  0  0  0
   10.8963   14.9126   18.1497 H    0  0  0  0  0  0  0  0  0  0  0  0
   11.2281   14.0845   19.6621 H    0  0  0  0  0  0  0  0  0  0  0  0
    8.4071   14.5101   21.2907 H    0  0  0  0  0  0  0  0  0  0  0  0
    9.9124   13.6171   21.3647 H    0  0  0  0  0  0  0  0  0  0  0  0
   10.2684   14.6716   25.1044 H    0  0  0  0  0  0  0  0  0  0  0  0
   11.2166   13.8329   23.8889 H    0  0  0  0  0  0  0  0  0  0  0  0
    9.2133   12.7007   25.4987 H    0  0  0  0  0  0  0  0  0  0  0  0
    8.0471   13.9097   25.8831 H    0  0  0  0  0  0  0  0  0  0  0  0
    9.4764    8.4969   24.2920 H    0  0  0  0  0  0  0  0  0  0  0  0
   10.0086    9.4629   22.9040 H    0  0  0  0  0  0  0  0  0  0  0  0
    8.3609    8.8107   22.9292 H    0  0  0  0  0  0  0  0  0  0  0  0
    4.5047   10.9897   27.3911 H    0  0  0  0  0  0  0  0  0  0  0  0
    5.1043    8.7744   26.4993 H    0  0  0  0  0  0  0  0  0  0  0  0
    6.9855    8.4927   24.9785 H    0  0  0  0  0  0  0  0  0  0  0  0
  7 14  1  0  0  0  0
  2  7  1  0  0  0  0
  1  2  2  0  0  0  0
  3  2  1  0  0  0  0
 28  3  1  0  0  0  0
  4  3  1  0  0  0  0
  6  4  1  0  0  0  0
 29  4  1  0  0  0  0
  5  4  1  0  0  0  0
 30  5  1  0  0  0  0
 31  5  1  0  0  0  0
 32  6  1  0  0  0  0
 33  6  1  0  0  0  0
 34  7  1  0  0  0  0
  8  7  1  0  0  0  0
 35  8  1  0  0  0  0
 36  8  1  0  0  0  0
  9  8  1  0  0  0  0
 10  9  1  0  0  0  0
 37  9  1  0  0  0  0
 11 10  2  0  0  0  0
 12 10  1  0  0  0  0
 38 12  1  0  0  0  0
 39 12  1  0  0  0  0
 13  9  1  0  0  0  0
 40 13  1  0  0  0  0
 41 13  1  0  0  0  0
 42 14  1  0  0  0  0
 43 14  1  0  0  0  0
 15 13  1  0  0  0  0
 16 15  1  0  0  0  0
 17 16  2  0  0  0  0
 18 16  1  0  0  0  0
 44 18  1  0  0  0  0
 45 18  1  0  0  0  0
 19 18  1  0  0  0  0
 20 19  1  0  0  0  0
 27 20  2  0  0  0  0
 21 20  1  0  0  0  0
 22 21  1  0  0  0  0
 46 22  1  0  0  0  0
 47 22  1  0  0  0  0
 48 22  1  0  0  0  0
 23 19  2  0  0  0  0
 24 23  1  0  0  0  0
 25 23  1  0  0  0  0
 49 25  1  0  0  0  0
 26 25  2  0  0  0  0
 50 26  1  0  0  0  0
 51 27  1  0  0  0  0
  6  5  1  0  0  0  0
 15 14  1  0  0  0  0
 27 26  1  0  0  0  0
M  END
>  <FittedScore>
-32.62

$$$$
