A71EV2A-x4580a_best-RMSD
  FITTED

 39 41     0  0  0  0  0  0  0999 V2000
    9.5541    9.0717   23.7646 BR   0  0  0  0  0  0  0  0  0  0  0  0
    8.2378    9.9867   24.7552 C    0  0  0  0  0  0  0  0  0  0  0  0
    7.1079    9.3635   25.1619 C    0  0  0  0  0  0  0  0  0  0  0  0
    6.1630    9.9663   25.9116 C    0  0  0  0  0  0  0  0  0  0  0  0
    8.4516   11.2758   25.0716 C    0  0  0  0  0  0  0  0  0  0  0  0
    7.5596   12.0144   25.8128 N    0  0  0  0  0  0  0  0  0  0  0  0
    6.4285   11.4027   26.2461 C    0  0  0  0  0  0  0  0  0  0  0  0
    5.6805   12.3305   26.9448 C    0  0  0  0  0  0  0  0  0  0  0  0
    6.3948   13.6322   26.9582 N    0  0  0  0  0  0  0  0  0  0  0  0
    7.5785   13.3447   26.1075 C    0  0  0  0  0  0  0  0  0  0  0  0
    8.5475   14.3857   25.5547 C    0  0  0  0  0  0  0  0  0  0  0  0
    8.3535   14.6887   24.0518 C    0  0  0  0  0  0  0  0  0  0  0  0
    7.4620   14.1306   23.4306 O    0  0  0  0  0  0  0  0  0  0  0  0
    9.2017   15.5650   23.4080 N    0  0  0  0  0  0  0  0  0  0  0  0
   10.4022   16.2383   24.0044 C    0  0  0  0  0  0  0  0  0  0  0  0
   11.7072   15.8275   23.2747 C    0  0  0  0  0  0  0  0  0  0  0  0
   11.6274   16.1307   21.7539 C    0  0  0  0  0  0  0  0  0  0  0  0
    9.0751   15.9162   21.9461 C    0  0  0  0  0  0  0  0  0  0  0  0
   10.3416   15.5218   21.1204 C    0  0  0  0  0  0  0  0  0  0  0  0
   10.2398   15.8905   19.6354 C    0  0  0  0  0  0  0  0  0  0  0  0
    9.9416   16.9969   19.2194 O    0  0  0  0  0  0  0  0  0  0  0  0
   10.5521   14.9020   18.7730 N    0  0  0  0  0  0  0  0  0  0  0  0
    6.9443    8.3189   24.8967 H    0  0  0  0  0  0  0  0  0  0  0  0
    5.2736    9.4215   26.2220 H    0  0  0  0  0  0  0  0  0  0  0  0
    9.3548   11.7962   24.7585 H    0  0  0  0  0  0  0  0  0  0  0  0
    4.7165   12.1749   27.4223 H    0  0  0  0  0  0  0  0  0  0  0  0
    8.4234   15.3064   26.1302 H    0  0  0  0  0  0  0  0  0  0  0  0
    9.5621   14.0244   25.7505 H    0  0  0  0  0  0  0  0  0  0  0  0
   10.2704   17.3229   23.9369 H    0  0  0  0  0  0  0  0  0  0  0  0
   10.5365   16.0529   25.0697 H    0  0  0  0  0  0  0  0  0  0  0  0
   12.5522   16.3724   23.7040 H    0  0  0  0  0  0  0  0  0  0  0  0
   11.8986   14.7611   23.4349 H    0  0  0  0  0  0  0  0  0  0  0  0
   11.6450   17.2138   21.5992 H    0  0  0  0  0  0  0  0  0  0  0  0
   12.5140   15.7279   21.2572 H    0  0  0  0  0  0  0  0  0  0  0  0
    8.8967   16.9924   21.8638 H    0  0  0  0  0  0  0  0  0  0  0  0
    8.2019   15.4613   21.4713 H    0  0  0  0  0  0  0  0  0  0  0  0
   10.4283   14.4323   21.2091 H    0  0  0  0  0  0  0  0  0  0  0  0
   10.5274   15.0727   17.7777 H    0  0  0  0  0  0  0  0  0  0  0  0
   10.7766   13.9693   19.1081 H    0  0  0  0  0  0  0  0  0  0  0  0
 11 12  1  0  0  0  0
 10 11  1  0  0  0  0
  9 10  2  0  0  0  0
  8  9  1  0  0  0  0
  7  8  2  0  0  0  0
  4  7  1  0  0  0  0
  3  4  2  0  0  0  0
  2  3  1  0  0  0  0
  1  2  1  0  0  0  0
 23  3  1  0  0  0  0
 24  4  1  0  0  0  0
  5  2  2  0  0  0  0
 25  5  1  0  0  0  0
  6  5  1  0  0  0  0
 26  8  1  0  0  0  0
 27 11  1  0  0  0  0
 28 11  1  0  0  0  0
 13 12  2  0  0  0  0
 14 12  1  0  0  0  0
 15 14  1  0  0  0  0
 29 15  1  0  0  0  0
 30 15  1  0  0  0  0
 16 15  1  0  0  0  0
 31 16  1  0  0  0  0
 32 16  1  0  0  0  0
 17 16  1  0  0  0  0
 33 17  1  0  0  0  0
 34 17  1  0  0  0  0
 18 14  1  0  0  0  0
 35 18  1  0  0  0  0
 36 18  1  0  0  0  0
 19 17  1  0  0  0  0
 20 19  1  0  0  0  0
 37 19  1  0  0  0  0
 21 20  2  0  0  0  0
 22 20  1  0  0  0  0
 38 22  1  0  0  0  0
 39 22  1  0  0  0  0
  7  6  1  0  0  0  0
 10  6  1  0  0  0  0
 19 18  1  0  0  0  0
M  END
>  <FittedScore>
-33.01

$$$$
