A71EV2A-x4959b_lowest-energy
  FITTED

 43 45     0  0  0  0  0  0  0999 V2000
    7.4101   13.0899   22.8091 O    0  0  0  0  0  0  0  0  0  0  0  0
    8.2702   13.6111   23.5080 C    0  0  0  0  0  0  0  0  0  0  0  0
    8.8863   14.7934   23.1644 N    0  0  0  0  0  0  0  0  0  0  0  0
    9.8598   15.5846   24.0007 C    0  0  0  0  0  0  0  0  0  0  0  0
   11.2989   15.5863   23.4048 C    0  0  0  0  0  0  0  0  0  0  0  0
   11.3115   16.0193   21.9115 C    0  0  0  0  0  0  0  0  0  0  0  0
    8.8200   15.3594   21.7828 C    0  0  0  0  0  0  0  0  0  0  0  0
   10.2174   15.2733   21.0898 C    0  0  0  0  0  0  0  0  0  0  0  0
   10.2022   15.7482   19.6388 C    0  0  0  0  0  0  0  0  0  0  0  0
    9.8109   16.8453   19.2805 O    0  0  0  0  0  0  0  0  0  0  0  0
   10.6229   14.8367   18.7391 N    0  0  0  0  0  0  0  0  0  0  0  0
    8.9204   12.8838   24.4592 N    0  0  0  0  0  0  0  0  0  0  0  0
    8.7612   11.4750   24.6485 C    0  0  0  0  0  0  0  0  0  0  0  0
    7.6038   10.9084   25.2308 C    0  0  0  0  0  0  0  0  0  0  0  0
    6.3060   11.9422   25.9047 S    0  0  0  0  0  0  0  0  0  0  0  0
    5.9326   11.1641   27.5031 C    0  0  0  0  0  0  0  0  0  0  0  0
    4.5904   11.4902   28.0893 C    0  0  0  0  0  0  0  0  0  0  0  0
    4.8714   10.1068   27.5843 C    0  0  0  0  0  0  0  0  0  0  0  0
    7.4604    9.5098   25.2137 C    0  0  0  0  0  0  0  0  0  0  0  0
    8.4441    8.6989   24.6284 C    0  0  0  0  0  0  0  0  0  0  0  0
    9.6012    9.2604   24.0892 C    0  0  0  0  0  0  0  0  0  0  0  0
    9.7621   10.6480   24.1137 C    0  0  0  0  0  0  0  0  0  0  0  0
    9.5039   16.6173   24.0797 H    0  0  0  0  0  0  0  0  0  0  0  0
    9.9003   15.2371   25.0359 H    0  0  0  0  0  0  0  0  0  0  0  0
   11.9349   16.2624   23.9826 H    0  0  0  0  0  0  0  0  0  0  0  0
   11.7298   14.5831   23.4976 H    0  0  0  0  0  0  0  0  0  0  0  0
   11.1646   17.1003   21.8461 H    0  0  0  0  0  0  0  0  0  0  0  0
   12.2958   15.8065   21.4857 H    0  0  0  0  0  0  0  0  0  0  0  0
    8.4727   16.3963   21.8238 H    0  0  0  0  0  0  0  0  0  0  0  0
    8.0874   14.8455   21.1549 H    0  0  0  0  0  0  0  0  0  0  0  0
   10.4884   14.2095   21.1089 H    0  0  0  0  0  0  0  0  0  0  0  0
   10.6060   15.0577   17.7515 H    0  0  0  0  0  0  0  0  0  0  0  0
   10.8255   13.8807   19.0336 H    0  0  0  0  0  0  0  0  0  0  0  0
    9.8196   13.2311   24.7820 H    0  0  0  0  0  0  0  0  0  0  0  0
    6.7815   11.0913   28.1751 H    0  0  0  0  0  0  0  0  0  0  0  0
    4.5367   11.6374   29.1631 H    0  0  0  0  0  0  0  0  0  0  0  0
    3.8913   12.0962   27.5173 H    0  0  0  0  0  0  0  0  0  0  0  0
    5.0101    9.3160   28.3136 H    0  0  0  0  0  0  0  0  0  0  0  0
    4.3728    9.7942   26.6693 H    0  0  0  0  0  0  0  0  0  0  0  0
    6.5764    9.0323   25.6211 H    0  0  0  0  0  0  0  0  0  0  0  0
    8.3063    7.6197   24.6065 H    0  0  0  0  0  0  0  0  0  0  0  0
   10.3631    8.6251   23.6454 H    0  0  0  0  0  0  0  0  0  0  0  0
   10.6561   11.0812   23.6700 H    0  0  0  0  0  0  0  0  0  0  0  0
  2  1  2  0  0  0  0
  3  2  1  0  0  0  0
  4  3  1  0  0  0  0
 23  4  1  0  0  0  0
 24  4  1  0  0  0  0
  5  4  1  0  0  0  0
 25  5  1  0  0  0  0
 26  5  1  0  0  0  0
  6  5  1  0  0  0  0
 27  6  1  0  0  0  0
 28  6  1  0  0  0  0
  7  3  1  0  0  0  0
 29  7  1  0  0  0  0
 30  7  1  0  0  0  0
  8  6  1  0  0  0  0
  9  8  1  0  0  0  0
 31  8  1  0  0  0  0
 10  9  2  0  0  0  0
 11  9  1  0  0  0  0
 32 11  1  0  0  0  0
 33 11  1  0  0  0  0
 12  2  1  0  0  0  0
 34 12  1  0  0  0  0
 13 12  1  0  0  0  0
 22 13  1  0  0  0  0
 14 13  2  0  0  0  0
 15 14  1  0  0  0  0
 16 15  1  0  0  0  0
 18 16  1  0  0  0  0
 35 16  1  0  0  0  0
 17 16  1  0  0  0  0
 36 17  1  0  0  0  0
 37 17  1  0  0  0  0
 38 18  1  0  0  0  0
 39 18  1  0  0  0  0
 19 14  1  0  0  0  0
 40 19  1  0  0  0  0
 20 19  2  0  0  0  0
 41 20  1  0  0  0  0
 21 20  1  0  0  0  0
 42 21  1  0  0  0  0
 43 22  1  0  0  0  0
  8  7  1  0  0  0  0
 18 17  1  0  0  0  0
 22 21  2  0  0  0  0
M  END
>  <FittedScore>
-36.68

$$$$
