A71EV2A-x3867a_best-RMSD
  FITTED

 36 37     0  0  0  0  0  0  0999 V2000
   10.8794   16.8560   19.2325 O    0  0  0  0  0  0  0  0  0  0  0  0
   10.8202   15.8307   19.8799 C    0  0  0  0  0  0  0  0  0  0  0  0
   10.3195   14.7368   19.2704 N    0  0  0  0  0  0  0  0  0  0  0  0
   11.3455   15.6619   21.2984 C    0  0  0  0  0  0  0  0  0  0  0  0
   12.2840   16.5658   21.8827 C    0  0  0  0  0  0  0  0  0  0  0  0
   12.9183   17.7413   21.1217 C    0  0  0  0  0  0  0  0  0  0  0  0
   12.7069   16.3503   23.2065 C    0  0  0  0  0  0  0  0  0  0  0  0
   12.2102   15.2866   23.9620 C    0  0  0  0  0  0  0  0  0  0  0  0
   10.8526   14.5954   22.0925 C    0  0  0  0  0  0  0  0  0  0  0  0
   11.2478   14.4102   23.4363 C    0  0  0  0  0  0  0  0  0  0  0  0
   10.6681   13.3320   24.3303 C    0  0  0  0  0  0  0  0  0  0  0  0
   11.1274   13.0574   25.4250 O    0  0  0  0  0  0  0  0  0  0  0  0
    9.4848   12.8145   23.9148 N    0  0  0  0  0  0  0  0  0  0  0  0
    8.6205   11.9509   24.6609 C    0  0  0  0  0  0  0  0  0  0  0  0
    8.7586   10.5424   24.6415 C    0  0  0  0  0  0  0  0  0  0  0  0
    9.8210    9.8276   23.8048 C    0  0  0  0  0  0  0  0  0  0  0  0
    7.5828   12.5491   25.3976 C    0  0  0  0  0  0  0  0  0  0  0  0
    6.7190   11.7630   26.1710 C    0  0  0  0  0  0  0  0  0  0  0  0
    6.8805   10.3719   26.1971 C    0  0  0  0  0  0  0  0  0  0  0  0
    7.8746    9.7690   25.4155 C    0  0  0  0  0  0  0  0  0  0  0  0
   10.3303   13.8351   19.7375 H    0  0  0  0  0  0  0  0  0  0  0  0
   10.0742   14.7846   18.2894 H    0  0  0  0  0  0  0  0  0  0  0  0
   13.7185   18.2334   21.6814 H    0  0  0  0  0  0  0  0  0  0  0  0
   12.1648   18.5066   20.9111 H    0  0  0  0  0  0  0  0  0  0  0  0
   13.3542   17.4245   20.1687 H    0  0  0  0  0  0  0  0  0  0  0  0
   13.4329   17.0126   23.6721 H    0  0  0  0  0  0  0  0  0  0  0  0
   12.5668   15.1675   24.9816 H    0  0  0  0  0  0  0  0  0  0  0  0
   10.1255   13.9125   21.6649 H    0  0  0  0  0  0  0  0  0  0  0  0
    9.0157   13.2557   23.1275 H    0  0  0  0  0  0  0  0  0  0  0  0
   10.8214    9.9610   24.2249 H    0  0  0  0  0  0  0  0  0  0  0  0
    9.8478   10.2046   22.7807 H    0  0  0  0  0  0  0  0  0  0  0  0
    9.6179    8.7563   23.7625 H    0  0  0  0  0  0  0  0  0  0  0  0
    7.4506   13.6292   25.3865 H    0  0  0  0  0  0  0  0  0  0  0  0
    5.9300   12.2288   26.7541 H    0  0  0  0  0  0  0  0  0  0  0  0
    6.2167    9.7571   26.7983 H    0  0  0  0  0  0  0  0  0  0  0  0
    7.9585    8.6840   25.4256 H    0  0  0  0  0  0  0  0  0  0  0  0
 10 11  1  0  0  0  0
  8 10  1  0  0  0  0
  7  8  2  0  0  0  0
  5  7  1  0  0  0  0
  4  5  2  0  0  0  0
  2  4  1  0  0  0  0
  1  2  2  0  0  0  0
  3  2  1  0  0  0  0
 21  3  1  0  0  0  0
 22  3  1  0  0  0  0
  6  5  1  0  0  0  0
 23  6  1  0  0  0  0
 24  6  1  0  0  0  0
 25  6  1  0  0  0  0
 26  7  1  0  0  0  0
 27  8  1  0  0  0  0
  9  4  1  0  0  0  0
 28  9  1  0  0  0  0
 12 11  2  0  0  0  0
 13 11  1  0  0  0  0
 29 13  1  0  0  0  0
 14 13  1  0  0  0  0
 15 14  1  0  0  0  0
 20 15  2  0  0  0  0
 16 15  1  0  0  0  0
 30 16  1  0  0  0  0
 31 16  1  0  0  0  0
 32 16  1  0  0  0  0
 17 14  2  0  0  0  0
 33 17  1  0  0  0  0
 18 17  1  0  0  0  0
 34 18  1  0  0  0  0
 19 18  2  0  0  0  0
 35 19  1  0  0  0  0
 36 20  1  0  0  0  0
 10  9  2  0  0  0  0
 20 19  1  0  0  0  0
M  END
>  <FittedScore>
-34.53

$$$$
