A71EV2A-x3867a_lowest-energy
  FITTED

 36 37     0  0  0  0  0  0  0999 V2000
   10.7741   16.8433   19.1918 O    0  0  0  0  0  0  0  0  0  0  0  0
   10.7306   15.8382   19.8612 C    0  0  0  0  0  0  0  0  0  0  0  0
   10.1921   14.7333   19.3154 N    0  0  0  0  0  0  0  0  0  0  0  0
   11.3182   15.6916   21.2548 C    0  0  0  0  0  0  0  0  0  0  0  0
   12.3006   16.5930   21.7652 C    0  0  0  0  0  0  0  0  0  0  0  0
   12.9709   17.6755   20.9058 C    0  0  0  0  0  0  0  0  0  0  0  0
   12.7748   16.4180   23.0754 C    0  0  0  0  0  0  0  0  0  0  0  0
   12.2869   15.3901   23.8843 C    0  0  0  0  0  0  0  0  0  0  0  0
   10.8552   14.6470   22.0910 C    0  0  0  0  0  0  0  0  0  0  0  0
   11.2988   14.5026   23.4230 C    0  0  0  0  0  0  0  0  0  0  0  0
   10.7371   13.4563   24.3722 C    0  0  0  0  0  0  0  0  0  0  0  0
   11.1977   13.2528   25.4827 O    0  0  0  0  0  0  0  0  0  0  0  0
    9.6021   12.8332   23.9606 N    0  0  0  0  0  0  0  0  0  0  0  0
    8.7629   11.9445   24.7061 C    0  0  0  0  0  0  0  0  0  0  0  0
    8.8241   10.5435   24.5124 C    0  0  0  0  0  0  0  0  0  0  0  0
    9.8933    9.8981   23.6351 C    0  0  0  0  0  0  0  0  0  0  0  0
    7.8204   12.4916   25.5940 C    0  0  0  0  0  0  0  0  0  0  0  0
    6.9290   11.6547   26.2816 C    0  0  0  0  0  0  0  0  0  0  0  0
    6.9825   10.2677   26.0846 C    0  0  0  0  0  0  0  0  0  0  0  0
    7.9152    9.7216   25.2047 C    0  0  0  0  0  0  0  0  0  0  0  0
   10.2789   13.8456   19.7912 H    0  0  0  0  0  0  0  0  0  0  0  0
    9.8571   14.7540   18.3598 H    0  0  0  0  0  0  0  0  0  0  0  0
   13.2737   17.2629   19.9366 H    0  0  0  0  0  0  0  0  0  0  0  0
   13.8750   18.0830   21.3659 H    0  0  0  0  0  0  0  0  0  0  0  0
   12.2902   18.5141   20.7319 H    0  0  0  0  0  0  0  0  0  0  0  0
   13.5335   17.0787   23.4893 H    0  0  0  0  0  0  0  0  0  0  0  0
   12.6791   15.3053   24.8911 H    0  0  0  0  0  0  0  0  0  0  0  0
   10.1145   13.9515   21.7058 H    0  0  0  0  0  0  0  0  0  0  0  0
    9.1495   13.1596   23.1108 H    0  0  0  0  0  0  0  0  0  0  0  0
    9.8307    8.8070   23.6972 H    0  0  0  0  0  0  0  0  0  0  0  0
   10.8912   10.1947   23.9610 H    0  0  0  0  0  0  0  0  0  0  0  0
    9.8100   10.1889   22.5857 H    0  0  0  0  0  0  0  0  0  0  0  0
    7.7785   13.5674   25.7610 H    0  0  0  0  0  0  0  0  0  0  0  0
    6.2048   12.0767   26.9707 H    0  0  0  0  0  0  0  0  0  0  0  0
    6.2881    9.6168   26.6102 H    0  0  0  0  0  0  0  0  0  0  0  0
    7.9388    8.6421   25.0704 H    0  0  0  0  0  0  0  0  0  0  0  0
 10 11  1  0  0  0  0
  8 10  1  0  0  0  0
  7  8  2  0  0  0  0
  5  7  1  0  0  0  0
  4  5  2  0  0  0  0
  2  4  1  0  0  0  0
  1  2  2  0  0  0  0
  3  2  1  0  0  0  0
 21  3  1  0  0  0  0
 22  3  1  0  0  0  0
  6  5  1  0  0  0  0
 23  6  1  0  0  0  0
 24  6  1  0  0  0  0
 25  6  1  0  0  0  0
 26  7  1  0  0  0  0
 27  8  1  0  0  0  0
  9  4  1  0  0  0  0
 28  9  1  0  0  0  0
 12 11  2  0  0  0  0
 13 11  1  0  0  0  0
 29 13  1  0  0  0  0
 14 13  1  0  0  0  0
 15 14  1  0  0  0  0
 20 15  2  0  0  0  0
 16 15  1  0  0  0  0
 30 16  1  0  0  0  0
 31 16  1  0  0  0  0
 32 16  1  0  0  0  0
 17 14  2  0  0  0  0
 33 17  1  0  0  0  0
 18 17  1  0  0  0  0
 34 18  1  0  0  0  0
 19 18  2  0  0  0  0
 35 19  1  0  0  0  0
 36 20  1  0  0  0  0
 10  9  2  0  0  0  0
 20 19  1  0  0  0  0
M  END
>  <FittedScore>
-34.33

$$$$
