A71EV2A-x4596a_lowest-energy
  FITTED

 37 39     0  0  0  0  0  0  0999 V2000
   10.8702   15.7824   25.2508 O    0  0  0  0  0  0  0  0  0  0  0  0
   10.7243   15.8165   24.0434 C    0  0  0  0  0  0  0  0  0  0  0  0
   11.9668   16.0003   23.1690 C    0  0  0  0  0  0  0  0  0  0  0  0
   11.6864   16.3674   21.6935 C    0  0  0  0  0  0  0  0  0  0  0  0
    9.5077   15.5784   23.4405 N    0  0  0  0  0  0  0  0  0  0  0  0
    9.2869   15.6069   21.9621 C    0  0  0  0  0  0  0  0  0  0  0  0
   10.5840   15.4428   21.1230 C    0  0  0  0  0  0  0  0  0  0  0  0
   10.3556   15.7134   19.6372 C    0  0  0  0  0  0  0  0  0  0  0  0
    9.8503   16.7325   19.1984 O    0  0  0  0  0  0  0  0  0  0  0  0
   10.6882   14.7042   18.8104 N    0  0  0  0  0  0  0  0  0  0  0  0
    8.2790   15.2082   24.2022 C    0  0  0  0  0  0  0  0  0  0  0  0
    8.1115   13.7050   24.4664 C    0  0  0  0  0  0  0  0  0  0  0  0
    8.9261   12.7122   23.8587 C    0  0  0  0  0  0  0  0  0  0  0  0
    8.6135   11.3726   24.0838 C    0  0  0  0  0  0  0  0  0  0  0  0
    9.1767   10.2474   23.5808 N    0  0  0  0  0  0  0  0  0  0  0  0
    8.4088    9.2008   23.9716 C    0  0  0  0  0  0  0  0  0  0  0  0
    7.4042    9.5330   24.7787 C    0  0  0  0  0  0  0  0  0  0  0  0
    7.5423   10.9973   24.8745 C    0  0  0  0  0  0  0  0  0  0  0  0
    6.7416   11.9466   25.5124 C    0  0  0  0  0  0  0  0  0  0  0  0
    7.0413   13.3055   25.3070 C    0  0  0  0  0  0  0  0  0  0  0  0
   12.5843   16.7913   23.6043 H    0  0  0  0  0  0  0  0  0  0  0  0
   12.5641   15.0851   23.2082 H    0  0  0  0  0  0  0  0  0  0  0  0
   11.3710   17.4137   21.6303 H    0  0  0  0  0  0  0  0  0  0  0  0
   12.6067   16.2769   21.1095 H    0  0  0  0  0  0  0  0  0  0  0  0
    8.8015   16.5577   21.7210 H    0  0  0  0  0  0  0  0  0  0  0  0
    8.5929   14.8171   21.6547 H    0  0  0  0  0  0  0  0  0  0  0  0
   10.9164   14.4053   21.2608 H    0  0  0  0  0  0  0  0  0  0  0  0
   10.9350   13.7900   19.1830 H    0  0  0  0  0  0  0  0  0  0  0  0
   10.6410   14.8332   17.8077 H    0  0  0  0  0  0  0  0  0  0  0  0
    7.3848   15.5680   23.6810 H    0  0  0  0  0  0  0  0  0  0  0  0
    8.2631   15.7441   25.1561 H    0  0  0  0  0  0  0  0  0  0  0  0
    9.7660   12.9528   23.2116 H    0  0  0  0  0  0  0  0  0  0  0  0
    9.6692   10.2911   22.6964 H    0  0  0  0  0  0  0  0  0  0  0  0
    8.6473    8.2017   23.6169 H    0  0  0  0  0  0  0  0  0  0  0  0
    6.6715    8.8582   25.2141 H    0  0  0  0  0  0  0  0  0  0  0  0
    5.8940   11.6489   26.1240 H    0  0  0  0  0  0  0  0  0  0  0  0
    6.4169   14.0570   25.7867 H    0  0  0  0  0  0  0  0  0  0  0  0
 12 20  2  0  0  0  0
 11 12  1  0  0  0  0
  5 11  1  0  0  0  0
  2  5  1  0  0  0  0
  1  2  2  0  0  0  0
  3  2  1  0  0  0  0
 21  3  1  0  0  0  0
 22  3  1  0  0  0  0
  4  3  1  0  0  0  0
 23  4  1  0  0  0  0
 24  4  1  0  0  0  0
  6  5  1  0  0  0  0
 25  6  1  0  0  0  0
 26  6  1  0  0  0  0
  7  4  1  0  0  0  0
  8  7  1  0  0  0  0
 27  7  1  0  0  0  0
  9  8  2  0  0  0  0
 10  8  1  0  0  0  0
 28 10  1  0  0  0  0
 29 10  1  0  0  0  0
 30 11  1  0  0  0  0
 31 11  1  0  0  0  0
 13 12  1  0  0  0  0
 32 13  1  0  0  0  0
 14 13  2  0  0  0  0
 15 14  1  0  0  0  0
 33 15  1  0  0  0  0
 16 15  1  0  0  0  0
 34 16  1  0  0  0  0
 17 16  2  0  0  0  0
 35 17  1  0  0  0  0
 18 17  1  0  0  0  0
 19 18  2  0  0  0  0
 36 19  1  0  0  0  0
 37 20  1  0  0  0  0
  7  6  1  0  0  0  0
 18 14  1  0  0  0  0
 20 19  1  0  0  0  0
M  END
>  <FittedScore>
-33.63

$$$$
