A71EV2A-x5288b_lowest-energy
  FITTED

 49 50     0  0  0  0  0  0  0999 V2000
    9.8256   16.8635   19.3087 O    0  0  0  0  0  0  0  0  0  0  0  0
   10.3230   15.8077   19.6595 C    0  0  0  0  0  0  0  0  0  0  0  0
   10.6292   14.8684   18.7449 N    0  0  0  0  0  0  0  0  0  0  0  0
   10.4367   15.3511   21.1143 C    0  0  0  0  0  0  0  0  0  0  0  0
   11.3040   16.3134   21.9788 C    0  0  0  0  0  0  0  0  0  0  0  0
   11.3746   15.8011   23.4440 C    0  0  0  0  0  0  0  0  0  0  0  0
    9.9659   15.4833   24.0257 C    0  0  0  0  0  0  0  0  0  0  0  0
    9.0309   15.1305   21.7633 C    0  0  0  0  0  0  0  0  0  0  0  0
    9.1159   14.5892   23.1571 N    0  0  0  0  0  0  0  0  0  0  0  0
    8.3465   13.5304   23.5838 C    0  0  0  0  0  0  0  0  0  0  0  0
    7.3906   13.1084   22.9443 O    0  0  0  0  0  0  0  0  0  0  0  0
    8.7023   12.9582   24.7652 N    0  0  0  0  0  0  0  0  0  0  0  0
    7.9886   11.9009   25.4331 C    0  0  0  0  0  0  0  0  0  0  0  0
    8.1709   10.5573   25.0291 C    0  0  0  0  0  0  0  0  0  0  0  0
    9.1849   10.2625   24.1160 O    0  0  0  0  0  0  0  0  0  0  0  0
    9.5288    8.9421   23.6331 C    0  0  0  0  0  0  0  0  0  0  0  0
    7.3338    9.5587   25.5747 C    0  0  0  0  0  0  0  0  0  0  0  0
    6.3731    9.8794   26.5402 C    0  0  0  0  0  0  0  0  0  0  0  0
    6.2456   11.1954   26.9902 C    0  0  0  0  0  0  0  0  0  0  0  0
    7.0565   12.2065   26.4521 C    0  0  0  0  0  0  0  0  0  0  0  0
    6.8589   13.8550   27.0904 S    0  0  0  0  0  0  0  0  0  0  0  0
    5.4500   14.4322   26.0796 C    0  0  0  0  0  0  0  0  0  0  0  0
    5.3044   15.9700   26.0089 C    0  0  0  0  0  0  0  0  0  0  0  0
    6.5236   16.6720   25.3596 C    0  0  0  0  0  0  0  0  0  0  0  0
   10.5431   15.0745   17.7577 H    0  0  0  0  0  0  0  0  0  0  0  0
   10.8353   13.9167   19.0409 H    0  0  0  0  0  0  0  0  0  0  0  0
   10.9533   14.3802   21.1348 H    0  0  0  0  0  0  0  0  0  0  0  0
   12.3143   16.3758   21.5627 H    0  0  0  0  0  0  0  0  0  0  0  0
   10.8905   17.3275   21.9579 H    0  0  0  0  0  0  0  0  0  0  0  0
   12.0003   14.9040   23.4884 H    0  0  0  0  0  0  0  0  0  0  0  0
   11.8613   16.5539   24.0682 H    0  0  0  0  0  0  0  0  0  0  0  0
   10.1131   15.0795   25.0292 H    0  0  0  0  0  0  0  0  0  0  0  0
    9.4300   16.4239   24.1772 H    0  0  0  0  0  0  0  0  0  0  0  0
    8.4775   14.4538   21.1046 H    0  0  0  0  0  0  0  0  0  0  0  0
    8.4627   16.0668   21.7747 H    0  0  0  0  0  0  0  0  0  0  0  0
    9.5625   13.2534   25.2259 H    0  0  0  0  0  0  0  0  0  0  0  0
    8.6880    8.5024   23.0887 H    0  0  0  0  0  0  0  0  0  0  0  0
    9.8145    8.2932   24.4630 H    0  0  0  0  0  0  0  0  0  0  0  0
   10.3748    9.0307   22.9477 H    0  0  0  0  0  0  0  0  0  0  0  0
    7.4183    8.5199   25.2690 H    0  0  0  0  0  0  0  0  0  0  0  0
    5.7392    9.1002   26.9564 H    0  0  0  0  0  0  0  0  0  0  0  0
    5.5141   11.4281   27.7597 H    0  0  0  0  0  0  0  0  0  0  0  0
    5.5461   14.0247   25.0710 H    0  0  0  0  0  0  0  0  0  0  0  0
    4.5427   14.0055   26.5131 H    0  0  0  0  0  0  0  0  0  0  0  0
    4.4037   16.2123   25.4367 H    0  0  0  0  0  0  0  0  0  0  0  0
    5.1465   16.3705   27.0149 H    0  0  0  0  0  0  0  0  0  0  0  0
    7.3836   16.6681   26.0332 H    0  0  0  0  0  0  0  0  0  0  0  0
    6.2877   17.7160   25.1455 H    0  0  0  0  0  0  0  0  0  0  0  0
    6.8074   16.1858   24.4217 H    0  0  0  0  0  0  0  0  0  0  0  0
 10 12  1  0  0  0  0
  9 10  1  0  0  0  0
  7  9  1  0  0  0  0
  6  7  1  0  0  0  0
  5  6  1  0  0  0  0
  4  5  1  0  0  0  0
  2  4  1  0  0  0  0
  1  2  2  0  0  0  0
  3  2  1  0  0  0  0
 25  3  1  0  0  0  0
 26  3  1  0  0  0  0
 27  4  1  0  0  0  0
 28  5  1  0  0  0  0
 29  5  1  0  0  0  0
 30  6  1  0  0  0  0
 31  6  1  0  0  0  0
 32  7  1  0  0  0  0
 33  7  1  0  0  0  0
  8  4  1  0  0  0  0
 34  8  1  0  0  0  0
 35  8  1  0  0  0  0
 11 10  2  0  0  0  0
 36 12  1  0  0  0  0
 13 12  1  0  0  0  0
 14 13  1  0  0  0  0
 15 14  1  0  0  0  0
 16 15  1  0  0  0  0
 37 16  1  0  0  0  0
 38 16  1  0  0  0  0
 39 16  1  0  0  0  0
 17 14  2  0  0  0  0
 40 17  1  0  0  0  0
 18 17  1  0  0  0  0
 41 18  1  0  0  0  0
 19 18  2  0  0  0  0
 42 19  1  0  0  0  0
 20 19  1  0  0  0  0
 21 20  1  0  0  0  0
 22 21  1  0  0  0  0
 43 22  1  0  0  0  0
 44 22  1  0  0  0  0
 23 22  1  0  0  0  0
 45 23  1  0  0  0  0
 46 23  1  0  0  0  0
 24 23  1  0  0  0  0
 47 24  1  0  0  0  0
 48 24  1  0  0  0  0
 49 24  1  0  0  0  0
  9  8  1  0  0  0  0
 20 13  2  0  0  0  0
M  END
>  <FittedScore>
-37.95

$$$$
