A71EV2A-x5288b_best-RMSD
  FITTED

 49 50     0  0  0  0  0  0  0999 V2000
    9.8322   16.8553   19.2934 O    0  0  0  0  0  0  0  0  0  0  0  0
   10.3223   15.7912   19.6274 C    0  0  0  0  0  0  0  0  0  0  0  0
   10.6653   14.8691   18.7078 N    0  0  0  0  0  0  0  0  0  0  0  0
   10.4244   15.3105   21.0680 C    0  0  0  0  0  0  0  0  0  0  0  0
   11.3947   16.1804   21.9183 C    0  0  0  0  0  0  0  0  0  0  0  0
   11.4839   15.6053   23.3632 C    0  0  0  0  0  0  0  0  0  0  0  0
   10.0829   15.3228   23.9907 C    0  0  0  0  0  0  0  0  0  0  0  0
    9.0310   15.1978   21.7616 C    0  0  0  0  0  0  0  0  0  0  0  0
    9.1498   14.5428   23.0995 N    0  0  0  0  0  0  0  0  0  0  0  0
    8.4021   13.4405   23.4500 C    0  0  0  0  0  0  0  0  0  0  0  0
    7.3935   13.1039   22.8446 O    0  0  0  0  0  0  0  0  0  0  0  0
    8.8336   12.7146   24.5173 N    0  0  0  0  0  0  0  0  0  0  0  0
    8.0536   11.7181   25.2067 C    0  0  0  0  0  0  0  0  0  0  0  0
    8.3131   10.3425   25.0098 C    0  0  0  0  0  0  0  0  0  0  0  0
    9.4212    9.9663   24.2520 O    0  0  0  0  0  0  0  0  0  0  0  0
    9.5905    8.6951   23.5846 C    0  0  0  0  0  0  0  0  0  0  0  0
    7.4565    9.3894   25.5982 C    0  0  0  0  0  0  0  0  0  0  0  0
    6.3961    9.7890   26.4182 C    0  0  0  0  0  0  0  0  0  0  0  0
    6.1696   11.1486   26.6515 C    0  0  0  0  0  0  0  0  0  0  0  0
    6.9805   12.1178   26.0437 C    0  0  0  0  0  0  0  0  0  0  0  0
    6.6056   13.8290   26.3743 S    0  0  0  0  0  0  0  0  0  0  0  0
    7.9840   14.3182   27.4639 C    0  0  0  0  0  0  0  0  0  0  0  0
    8.1566   15.8514   27.5372 C    0  0  0  0  0  0  0  0  0  0  0  0
    9.4628   16.2592   28.2521 C    0  0  0  0  0  0  0  0  0  0  0  0
   10.8556   13.9133   19.0067 H    0  0  0  0  0  0  0  0  0  0  0  0
   10.6553   15.0924   17.7198 H    0  0  0  0  0  0  0  0  0  0  0  0
   10.8481   14.2953   21.0743 H    0  0  0  0  0  0  0  0  0  0  0  0
   12.3906   16.1851   21.4606 H    0  0  0  0  0  0  0  0  0  0  0  0
   11.0594   17.2221   21.9543 H    0  0  0  0  0  0  0  0  0  0  0  0
   12.0563   14.6708   23.3420 H    0  0  0  0  0  0  0  0  0  0  0  0
   12.0353   16.2984   24.0034 H    0  0  0  0  0  0  0  0  0  0  0  0
   10.2473   14.8341   24.9504 H    0  0  0  0  0  0  0  0  0  0  0  0
    9.6028   16.2727   24.2385 H    0  0  0  0  0  0  0  0  0  0  0  0
    8.3662   14.6454   21.0951 H    0  0  0  0  0  0  0  0  0  0  0  0
    8.5755   16.1882   21.8780 H    0  0  0  0  0  0  0  0  0  0  0  0
    9.7554   12.8894   24.9145 H    0  0  0  0  0  0  0  0  0  0  0  0
    8.7513    8.5086   22.9077 H    0  0  0  0  0  0  0  0  0  0  0  0
    9.6796    7.8776   24.3005 H    0  0  0  0  0  0  0  0  0  0  0  0
   10.5128    8.7361   22.9993 H    0  0  0  0  0  0  0  0  0  0  0  0
    7.6145    8.3240   25.4536 H    0  0  0  0  0  0  0  0  0  0  0  0
    5.7524    9.0406   26.8772 H    0  0  0  0  0  0  0  0  0  0  0  0
    5.3498   11.4502   27.2976 H    0  0  0  0  0  0  0  0  0  0  0  0
    7.7792   13.9061   28.4541 H    0  0  0  0  0  0  0  0  0  0  0  0
    8.9070   13.8604   27.1017 H    0  0  0  0  0  0  0  0  0  0  0  0
    8.1649   16.2667   26.5255 H    0  0  0  0  0  0  0  0  0  0  0  0
    7.3006   16.2946   28.0564 H    0  0  0  0  0  0  0  0  0  0  0  0
    9.5293   17.3474   28.3199 H    0  0  0  0  0  0  0  0  0  0  0  0
   10.3365   15.9041   27.6997 H    0  0  0  0  0  0  0  0  0  0  0  0
    9.5009   15.8586   29.2690 H    0  0  0  0  0  0  0  0  0  0  0  0
 10 12  1  0  0  0  0
  9 10  1  0  0  0  0
  7  9  1  0  0  0  0
  6  7  1  0  0  0  0
  5  6  1  0  0  0  0
  4  5  1  0  0  0  0
  2  4  1  0  0  0  0
  1  2  2  0  0  0  0
  3  2  1  0  0  0  0
 25  3  1  0  0  0  0
 26  3  1  0  0  0  0
 27  4  1  0  0  0  0
 28  5  1  0  0  0  0
 29  5  1  0  0  0  0
 30  6  1  0  0  0  0
 31  6  1  0  0  0  0
 32  7  1  0  0  0  0
 33  7  1  0  0  0  0
  8  4  1  0  0  0  0
 34  8  1  0  0  0  0
 35  8  1  0  0  0  0
 11 10  2  0  0  0  0
 36 12  1  0  0  0  0
 13 12  1  0  0  0  0
 14 13  1  0  0  0  0
 15 14  1  0  0  0  0
 16 15  1  0  0  0  0
 37 16  1  0  0  0  0
 38 16  1  0  0  0  0
 39 16  1  0  0  0  0
 17 14  2  0  0  0  0
 40 17  1  0  0  0  0
 18 17  1  0  0  0  0
 41 18  1  0  0  0  0
 19 18  2  0  0  0  0
 42 19  1  0  0  0  0
 20 19  1  0  0  0  0
 21 20  1  0  0  0  0
 22 21  1  0  0  0  0
 43 22  1  0  0  0  0
 44 22  1  0  0  0  0
 23 22  1  0  0  0  0
 45 23  1  0  0  0  0
 46 23  1  0  0  0  0
 24 23  1  0  0  0  0
 47 24  1  0  0  0  0
 48 24  1  0  0  0  0
 49 24  1  0  0  0  0
  9  8  1  0  0  0  0
 20 13  2  0  0  0  0
M  END
>  <FittedScore>
-36.71

$$$$
