A71EV2A-x4922a_lowest-energy
  FITTED

 34 35     0  0  0  0  0  0  0999 V2000
   11.1532   13.9326   25.3595 O    0  0  0  0  0  0  0  0  0  0  0  0
   10.8667   14.3781   24.2613 C    0  0  0  0  0  0  0  0  0  0  0  0
   11.7779   15.4557   23.6590 C    0  0  0  0  0  0  0  0  0  0  0  0
   11.3832   16.0381   22.2700 C    0  0  0  0  0  0  0  0  0  0  0  0
   10.7049   14.9514   21.4004 C    0  0  0  0  0  0  0  0  0  0  0  0
   10.3540   15.4453   19.9957 C    0  0  0  0  0  0  0  0  0  0  0  0
    9.7132   16.4567   19.7628 O    0  0  0  0  0  0  0  0  0  0  0  0
   10.7309   14.6303   18.9909 N    0  0  0  0  0  0  0  0  0  0  0  0
    9.4767   14.3945   22.1726 C    0  0  0  0  0  0  0  0  0  0  0  0
    9.8594   13.8288   23.4951 N    0  0  0  0  0  0  0  0  0  0  0  0
    9.1738   12.6332   23.9120 C    0  0  0  0  0  0  0  0  0  0  0  0
    7.9876   12.6760   24.6774 C    0  0  0  0  0  0  0  0  0  0  0  0
    7.1733   14.2072   25.0687 S    0  0  0  0  0  0  0  0  0  0  0  0
    5.8263   14.2091   23.8418 C    0  0  0  0  0  0  0  0  0  0  0  0
    9.7387   11.3900   23.5753 C    0  0  0  0  0  0  0  0  0  0  0  0
    9.1608   10.2003   24.0342 C    0  0  0  0  0  0  0  0  0  0  0  0
    8.0107   10.2473   24.8350 C    0  0  0  0  0  0  0  0  0  0  0  0
    7.4217   11.4807   25.1484 C    0  0  0  0  0  0  0  0  0  0  0  0
   11.8504   16.2834   24.3704 H    0  0  0  0  0  0  0  0  0  0  0  0
   12.7833   15.0314   23.5759 H    0  0  0  0  0  0  0  0  0  0  0  0
   10.7084   16.8905   22.4066 H    0  0  0  0  0  0  0  0  0  0  0  0
   12.2752   16.4212   21.7636 H    0  0  0  0  0  0  0  0  0  0  0  0
   11.4254   14.1256   21.3094 H    0  0  0  0  0  0  0  0  0  0  0  0
   10.5629   14.8956   18.0287 H    0  0  0  0  0  0  0  0  0  0  0  0
   11.1137   13.7037   19.1825 H    0  0  0  0  0  0  0  0  0  0  0  0
    8.7373   15.1854   22.3280 H    0  0  0  0  0  0  0  0  0  0  0  0
    8.9860   13.6326   21.5577 H    0  0  0  0  0  0  0  0  0  0  0  0
    5.2214   15.1089   23.9650 H    0  0  0  0  0  0  0  0  0  0  0  0
    5.1922   13.3333   23.9951 H    0  0  0  0  0  0  0  0  0  0  0  0
    6.2348   14.1830   22.8298 H    0  0  0  0  0  0  0  0  0  0  0  0
   10.6437   11.3466   22.9696 H    0  0  0  0  0  0  0  0  0  0  0  0
    9.6076    9.2429   23.7775 H    0  0  0  0  0  0  0  0  0  0  0  0
    7.5711    9.3262   25.2044 H    0  0  0  0  0  0  0  0  0  0  0  0
    6.5177   11.5060   25.7504 H    0  0  0  0  0  0  0  0  0  0  0  0
  9 10  1  0  0  0  0
  5  9  1  0  0  0  0
  6  5  1  0  0  0  0
  4  5  1  0  0  0  0
  3  4  1  0  0  0  0
  2  3  1  0  0  0  0
  1  2  2  0  0  0  0
 19  3  1  0  0  0  0
 20  3  1  0  0  0  0
 21  4  1  0  0  0  0
 22  4  1  0  0  0  0
 23  5  1  0  0  0  0
  7  6  2  0  0  0  0
  8  6  1  0  0  0  0
 24  8  1  0  0  0  0
 25  8  1  0  0  0  0
 26  9  1  0  0  0  0
 27  9  1  0  0  0  0
 11 10  1  0  0  0  0
 12 11  1  0  0  0  0
 18 12  2  0  0  0  0
 13 12  1  0  0  0  0
 14 13  1  0  0  0  0
 28 14  1  0  0  0  0
 29 14  1  0  0  0  0
 30 14  1  0  0  0  0
 15 11  2  0  0  0  0
 31 15  1  0  0  0  0
 16 15  1  0  0  0  0
 32 16  1  0  0  0  0
 17 16  2  0  0  0  0
 33 17  1  0  0  0  0
 34 18  1  0  0  0  0
 10  2  1  0  0  0  0
 18 17  1  0  0  0  0
M  END
>  <FittedScore>
-23.75

$$$$
