A71EV2A-x4922a_best-RMSD
  FITTED

 34 35     0  0  0  0  0  0  0999 V2000
   10.5728   15.0947   25.5933 O    0  0  0  0  0  0  0  0  0  0  0  0
   10.4863   15.1237   24.3733 C    0  0  0  0  0  0  0  0  0  0  0  0
   11.7310   15.5044   23.5603 C    0  0  0  0  0  0  0  0  0  0  0  0
   11.4495   16.0071   22.1209 C    0  0  0  0  0  0  0  0  0  0  0  0
   10.4498   15.0561   21.4121 C    0  0  0  0  0  0  0  0  0  0  0  0
   10.1974   15.4989   19.9660 C    0  0  0  0  0  0  0  0  0  0  0  0
    9.5531   16.4849   19.6581 O    0  0  0  0  0  0  0  0  0  0  0  0
   10.6908   14.6895   19.0101 N    0  0  0  0  0  0  0  0  0  0  0  0
    9.1470   14.9313   22.2589 C    0  0  0  0  0  0  0  0  0  0  0  0
    9.3725   14.6613   23.7114 N    0  0  0  0  0  0  0  0  0  0  0  0
    8.3631   13.8723   24.3908 C    0  0  0  0  0  0  0  0  0  0  0  0
    8.3678   12.4546   24.3275 C    0  0  0  0  0  0  0  0  0  0  0  0
    9.6098   11.6038   23.3467 S    0  0  0  0  0  0  0  0  0  0  0  0
    9.5657    9.8397   23.7779 C    0  0  0  0  0  0  0  0  0  0  0  0
    7.3979   14.5380   25.1690 C    0  0  0  0  0  0  0  0  0  0  0  0
    6.4338   13.8087   25.8702 C    0  0  0  0  0  0  0  0  0  0  0  0
    6.4180   12.4119   25.7967 C    0  0  0  0  0  0  0  0  0  0  0  0
    7.3801   11.7398   25.0350 C    0  0  0  0  0  0  0  0  0  0  0  0
   12.2840   16.2812   24.0965 H    0  0  0  0  0  0  0  0  0  0  0  0
   12.3864   14.6287   23.5169 H    0  0  0  0  0  0  0  0  0  0  0  0
   11.0503   17.0256   22.1561 H    0  0  0  0  0  0  0  0  0  0  0  0
   12.3893   16.0477   21.5627 H    0  0  0  0  0  0  0  0  0  0  0  0
   10.9024   14.0560   21.4043 H    0  0  0  0  0  0  0  0  0  0  0  0
   11.0418   13.7699   19.2693 H    0  0  0  0  0  0  0  0  0  0  0  0
   10.5768   14.9304   18.0333 H    0  0  0  0  0  0  0  0  0  0  0  0
    8.5683   15.8585   22.1867 H    0  0  0  0  0  0  0  0  0  0  0  0
    8.5207   14.1506   21.8112 H    0  0  0  0  0  0  0  0  0  0  0  0
   10.4048    9.3313   23.2986 H    0  0  0  0  0  0  0  0  0  0  0  0
    8.6299    9.3896   23.4465 H    0  0  0  0  0  0  0  0  0  0  0  0
    9.6726    9.7323   24.8590 H    0  0  0  0  0  0  0  0  0  0  0  0
    7.4009   15.6220   25.2377 H    0  0  0  0  0  0  0  0  0  0  0  0
    5.6934   14.3284   26.4661 H    0  0  0  0  0  0  0  0  0  0  0  0
    5.6718   11.8448   26.3414 H    0  0  0  0  0  0  0  0  0  0  0  0
    7.3278   10.6584   25.0062 H    0  0  0  0  0  0  0  0  0  0  0  0
  9 10  1  0  0  0  0
  5  9  1  0  0  0  0
  6  5  1  0  0  0  0
  4  5  1  0  0  0  0
  3  4  1  0  0  0  0
  2  3  1  0  0  0  0
  1  2  2  0  0  0  0
 19  3  1  0  0  0  0
 20  3  1  0  0  0  0
 21  4  1  0  0  0  0
 22  4  1  0  0  0  0
 23  5  1  0  0  0  0
  7  6  2  0  0  0  0
  8  6  1  0  0  0  0
 24  8  1  0  0  0  0
 25  8  1  0  0  0  0
 26  9  1  0  0  0  0
 27  9  1  0  0  0  0
 11 10  1  0  0  0  0
 12 11  1  0  0  0  0
 18 12  2  0  0  0  0
 13 12  1  0  0  0  0
 14 13  1  0  0  0  0
 28 14  1  0  0  0  0
 29 14  1  0  0  0  0
 30 14  1  0  0  0  0
 15 11  2  0  0  0  0
 31 15  1  0  0  0  0
 16 15  1  0  0  0  0
 32 16  1  0  0  0  0
 17 16  2  0  0  0  0
 33 17  1  0  0  0  0
 34 18  1  0  0  0  0
 10  2  1  0  0  0  0
 18 17  1  0  0  0  0
M  END
>  <FittedScore>
-25.77

$$$$
