A71EV2A-x4586a_lowest-energy
  FITTED

 36 37     0  0  0  0  0  0  0999 V2000
    9.8864   16.8001   19.2929 O    0  0  0  0  0  0  0  0  0  0  0  0
   10.2156   15.6930   19.6783 C    0  0  0  0  0  0  0  0  0  0  0  0
   10.5724   14.7477   18.7948 N    0  0  0  0  0  0  0  0  0  0  0  0
   10.0879   15.2062   21.1229 C    0  0  0  0  0  0  0  0  0  0  0  0
   10.8387   16.1392   22.1121 C    0  0  0  0  0  0  0  0  0  0  0  0
   10.6257   15.6626   23.5682 C    0  0  0  0  0  0  0  0  0  0  0  0
    9.1151   15.4597   23.8815 C    0  0  0  0  0  0  0  0  0  0  0  0
    8.5915   14.9884   21.5291 C    0  0  0  0  0  0  0  0  0  0  0  0
    8.3894   14.5314   22.9457 N    0  0  0  0  0  0  0  0  0  0  0  0
    7.4542   13.5666   23.2939 C    0  0  0  0  0  0  0  0  0  0  0  0
    6.5933   13.2250   22.4937 O    0  0  0  0  0  0  0  0  0  0  0  0
    7.4765   12.8278   24.6525 C    0  0  0  0  0  0  0  0  0  0  0  0
    7.0264   13.6651   25.8857 C    0  0  0  0  0  0  0  0  0  0  0  0
    8.7247   11.9513   24.8228 C    0  0  0  0  0  0  0  0  0  0  0  0
    8.7270   10.2247   24.4162 S    0  0  0  0  0  0  0  0  0  0  0  0
   10.4242   10.1296   24.8525 C    0  0  0  0  0  0  0  0  0  0  0  0
   10.9202   11.3484   25.2823 C    0  0  0  0  0  0  0  0  0  0  0  0
    9.9719   12.3568   25.2917 C    0  0  0  0  0  0  0  0  0  0  0  0
   10.5676   14.9563   17.8015 H    0  0  0  0  0  0  0  0  0  0  0  0
   10.7089   13.7874   19.1043 H    0  0  0  0  0  0  0  0  0  0  0  0
   10.5718   14.2237   21.2080 H    0  0  0  0  0  0  0  0  0  0  0  0
   11.9087   16.1376   21.8753 H    0  0  0  0  0  0  0  0  0  0  0  0
   10.4910   17.1721   22.0065 H    0  0  0  0  0  0  0  0  0  0  0  0
   11.1730   14.7289   23.7305 H    0  0  0  0  0  0  0  0  0  0  0  0
   11.0448   16.4028   24.2538 H    0  0  0  0  0  0  0  0  0  0  0  0
    9.0577   15.1573   24.9126 H    0  0  0  0  0  0  0  0  0  0  0  0
    8.6118   16.4313   23.8593 H    0  0  0  0  0  0  0  0  0  0  0  0
    8.1862   14.2583   20.8239 H    0  0  0  0  0  0  0  0  0  0  0  0
    8.0176   15.9072   21.3674 H    0  0  0  0  0  0  0  0  0  0  0  0
    6.6637   12.0982   24.5798 H    0  0  0  0  0  0  0  0  0  0  0  0
    6.4775   13.0366   26.5911 H    0  0  0  0  0  0  0  0  0  0  0  0
    6.3716   14.4931   25.5957 H    0  0  0  0  0  0  0  0  0  0  0  0
    7.8689   14.0766   26.4397 H    0  0  0  0  0  0  0  0  0  0  0  0
   11.0164    9.2236   24.7611 H    0  0  0  0  0  0  0  0  0  0  0  0
   11.9544   11.4944   25.5907 H    0  0  0  0  0  0  0  0  0  0  0  0
   10.2091   13.3555   25.6457 H    0  0  0  0  0  0  0  0  0  0  0  0
  7  9  1  0  0  0  0
  6  7  1  0  0  0  0
  5  6  1  0  0  0  0
  4  5  1  0  0  0  0
  2  4  1  0  0  0  0
  1  2  2  0  0  0  0
  3  2  1  0  0  0  0
 19  3  1  0  0  0  0
 20  3  1  0  0  0  0
 21  4  1  0  0  0  0
 22  5  1  0  0  0  0
 23  5  1  0  0  0  0
 24  6  1  0  0  0  0
 25  6  1  0  0  0  0
 26  7  1  0  0  0  0
 27  7  1  0  0  0  0
  8  4  1  0  0  0  0
 28  8  1  0  0  0  0
 29  8  1  0  0  0  0
 10  9  1  0  0  0  0
 11 10  2  0  0  0  0
 12 10  1  0  0  0  0
 13 12  1  0  0  0  0
 30 12  1  0  0  0  0
 31 13  1  0  0  0  0
 32 13  1  0  0  0  0
 33 13  1  0  0  0  0
 14 12  1  0  0  0  0
 18 14  2  0  0  0  0
 15 14  1  0  0  0  0
 16 15  1  0  0  0  0
 34 16  1  0  0  0  0
 17 16  2  0  0  0  0
 35 17  1  0  0  0  0
 36 18  1  0  0  0  0
  9  8  1  0  0  0  0
 18 17  1  0  0  0  0
M  END
>  <FittedScore>
-31.61

$$$$
