A71EV2A-x4586a_best-RMSD
  FITTED

 36 37     0  0  0  0  0  0  0999 V2000
    9.8097   16.7745   19.3843 O    0  0  0  0  0  0  0  0  0  0  0  0
   10.1638   15.6729   19.7535 C    0  0  0  0  0  0  0  0  0  0  0  0
   10.5924   14.7753   18.8474 N    0  0  0  0  0  0  0  0  0  0  0  0
   10.0239   15.1567   21.1918 C    0  0  0  0  0  0  0  0  0  0  0  0
   10.8043   16.0486   22.1981 C    0  0  0  0  0  0  0  0  0  0  0  0
   10.6182   15.5234   23.6410 C    0  0  0  0  0  0  0  0  0  0  0  0
    9.1174   15.3134   23.9960 C    0  0  0  0  0  0  0  0  0  0  0  0
    8.5270   14.9938   21.6242 C    0  0  0  0  0  0  0  0  0  0  0  0
    8.3286   14.4748   23.0270 N    0  0  0  0  0  0  0  0  0  0  0  0
    7.3671   13.5221   23.3498 C    0  0  0  0  0  0  0  0  0  0  0  0
    6.5112   13.2106   22.5345 O    0  0  0  0  0  0  0  0  0  0  0  0
    7.3438   12.7482   24.6940 C    0  0  0  0  0  0  0  0  0  0  0  0
    6.9736   13.5744   25.9597 C    0  0  0  0  0  0  0  0  0  0  0  0
    8.5291   11.7849   24.8294 C    0  0  0  0  0  0  0  0  0  0  0  0
   10.1591   12.2335   25.3563 S    0  0  0  0  0  0  0  0  0  0  0  0
   10.6942   10.5842   25.0589 C    0  0  0  0  0  0  0  0  0  0  0  0
    9.6725    9.7696   24.6074 C    0  0  0  0  0  0  0  0  0  0  0  0
    8.4657   10.4365   24.4957 C    0  0  0  0  0  0  0  0  0  0  0  0
   10.7658   13.8127   19.1258 H    0  0  0  0  0  0  0  0  0  0  0  0
   10.5666   15.0121   17.8586 H    0  0  0  0  0  0  0  0  0  0  0  0
   10.4731   14.1569   21.2514 H    0  0  0  0  0  0  0  0  0  0  0  0
   11.8685   16.0527   21.9452 H    0  0  0  0  0  0  0  0  0  0  0  0
   10.4578   17.0852   22.1407 H    0  0  0  0  0  0  0  0  0  0  0  0
   11.1640   14.5834   23.7562 H    0  0  0  0  0  0  0  0  0  0  0  0
   11.0624   16.2289   24.3472 H    0  0  0  0  0  0  0  0  0  0  0  0
    9.1116   14.9168   24.9980 H    0  0  0  0  0  0  0  0  0  0  0  0
    8.6285   16.2875   24.0801 H    0  0  0  0  0  0  0  0  0  0  0  0
    8.0635   14.3332   20.8860 H    0  0  0  0  0  0  0  0  0  0  0  0
    8.0074   15.9531   21.5285 H    0  0  0  0  0  0  0  0  0  0  0  0
    6.4735   12.0843   24.6153 H    0  0  0  0  0  0  0  0  0  0  0  0
    6.4183   12.9566   26.6680 H    0  0  0  0  0  0  0  0  0  0  0  0
    6.3486   14.4332   25.7042 H    0  0  0  0  0  0  0  0  0  0  0  0
    7.8512   13.9340   26.4981 H    0  0  0  0  0  0  0  0  0  0  0  0
   11.7223   10.2598   25.1942 H    0  0  0  0  0  0  0  0  0  0  0  0
    9.8061    8.7217   24.3544 H    0  0  0  0  0  0  0  0  0  0  0  0
    7.5599    9.9515   24.1413 H    0  0  0  0  0  0  0  0  0  0  0  0
  7  9  1  0  0  0  0
  6  7  1  0  0  0  0
  5  6  1  0  0  0  0
  4  5  1  0  0  0  0
  2  4  1  0  0  0  0
  1  2  2  0  0  0  0
  3  2  1  0  0  0  0
 19  3  1  0  0  0  0
 20  3  1  0  0  0  0
 21  4  1  0  0  0  0
 22  5  1  0  0  0  0
 23  5  1  0  0  0  0
 24  6  1  0  0  0  0
 25  6  1  0  0  0  0
 26  7  1  0  0  0  0
 27  7  1  0  0  0  0
  8  4  1  0  0  0  0
 28  8  1  0  0  0  0
 29  8  1  0  0  0  0
 10  9  1  0  0  0  0
 11 10  2  0  0  0  0
 12 10  1  0  0  0  0
 13 12  1  0  0  0  0
 30 12  1  0  0  0  0
 31 13  1  0  0  0  0
 32 13  1  0  0  0  0
 33 13  1  0  0  0  0
 14 12  1  0  0  0  0
 18 14  2  0  0  0  0
 15 14  1  0  0  0  0
 16 15  1  0  0  0  0
 34 16  1  0  0  0  0
 17 16  2  0  0  0  0
 35 17  1  0  0  0  0
 36 18  1  0  0  0  0
  9  8  1  0  0  0  0
 18 17  1  0  0  0  0
M  END
>  <FittedScore>
-33.56

$$$$
