A71EV2A-x4608a_best-RMSD
  FITTED

 43 45     0  0  0  0  0  0  0999 V2000
    9.8484   16.6364   19.5089 O    0  0  0  0  0  0  0  0  0  0  0  0
   10.2240   15.5095   19.7763 C    0  0  0  0  0  0  0  0  0  0  0  0
   10.6749   14.6894   18.8034 N    0  0  0  0  0  0  0  0  0  0  0  0
   10.1094   14.8809   21.1692 C    0  0  0  0  0  0  0  0  0  0  0  0
   11.3134   15.2668   22.0749 C    0  0  0  0  0  0  0  0  0  0  0  0
   11.1752   14.6198   23.4803 C    0  0  0  0  0  0  0  0  0  0  0  0
    9.7648   14.8340   24.1040 C    0  0  0  0  0  0  0  0  0  0  0  0
    8.7677   15.2198   21.8879 C    0  0  0  0  0  0  0  0  0  0  0  0
    8.6173   14.4863   23.1891 N    0  0  0  0  0  0  0  0  0  0  0  0
    7.5747   13.6045   23.4274 C    0  0  0  0  0  0  0  0  0  0  0  0
    6.8264   13.2715   22.5206 O    0  0  0  0  0  0  0  0  0  0  0  0
    7.4625   12.8361   24.7645 C    0  0  0  0  0  0  0  0  0  0  0  0
    8.1372   11.4706   24.6479 C    0  0  0  0  0  0  0  0  0  0  0  0
    9.1634   11.0702   23.8269 C    0  0  0  0  0  0  0  0  0  0  0  0
    5.9807   12.7068   25.2646 C    0  0  0  0  0  0  0  0  0  0  0  0
    5.8596   11.7298   26.4760 C    0  0  0  0  0  0  0  0  0  0  0  0
    6.4256   10.3163   26.1506 C    0  0  0  0  0  0  0  0  0  0  0  0
    7.6650   10.3308   25.2684 C    0  0  0  0  0  0  0  0  0  0  0  0
    8.3511    9.1271   24.7720 N    0  0  0  0  0  0  0  0  0  0  0  0
    9.2708    9.7188   23.9542 N    0  0  0  0  0  0  0  0  0  0  0  0
   10.0013    8.8576   23.0283 C    0  0  0  0  0  0  0  0  0  0  0  0
   10.8781   13.7139   19.0251 H    0  0  0  0  0  0  0  0  0  0  0  0
   10.6088   14.9762   17.8306 H    0  0  0  0  0  0  0  0  0  0  0  0
   10.1264   13.7884   21.0583 H    0  0  0  0  0  0  0  0  0  0  0  0
   12.2456   14.9305   21.6149 H    0  0  0  0  0  0  0  0  0  0  0  0
   11.3837   16.3546   22.1724 H    0  0  0  0  0  0  0  0  0  0  0  0
   11.3764   13.5473   23.4078 H    0  0  0  0  0  0  0  0  0  0  0  0
   11.9340   15.0331   24.1487 H    0  0  0  0  0  0  0  0  0  0  0  0
    9.7764   14.2684   25.0286 H    0  0  0  0  0  0  0  0  0  0  0  0
    9.6597   15.8767   24.4109 H    0  0  0  0  0  0  0  0  0  0  0  0
    7.9490   15.0227   21.1905 H    0  0  0  0  0  0  0  0  0  0  0  0
    8.7019   16.2953   22.0847 H    0  0  0  0  0  0  0  0  0  0  0  0
    7.9410   13.3735   25.5804 H    0  0  0  0  0  0  0  0  0  0  0  0
    9.7430   11.6896   23.1460 H    0  0  0  0  0  0  0  0  0  0  0  0
    5.6034   13.6937   25.5465 H    0  0  0  0  0  0  0  0  0  0  0  0
    5.3293   12.3377   24.4661 H    0  0  0  0  0  0  0  0  0  0  0  0
    6.3996   12.1443   27.3321 H    0  0  0  0  0  0  0  0  0  0  0  0
    4.8117   11.6422   26.7698 H    0  0  0  0  0  0  0  0  0  0  0  0
    6.6633    9.7961   27.0814 H    0  0  0  0  0  0  0  0  0  0  0  0
    5.6531    9.7294   25.6474 H    0  0  0  0  0  0  0  0  0  0  0  0
   10.8762    8.4140   23.5096 H    0  0  0  0  0  0  0  0  0  0  0  0
   10.3545    9.4099   22.1519 H    0  0  0  0  0  0  0  0  0  0  0  0
    9.3837    8.0372   22.6504 H    0  0  0  0  0  0  0  0  0  0  0  0
  9 10  1  0  0  0  0
  7  9  1  0  0  0  0
  6  7  1  0  0  0  0
  5  6  1  0  0  0  0
  4  5  1  0  0  0  0
  2  4  1  0  0  0  0
  1  2  2  0  0  0  0
  3  2  1  0  0  0  0
 22  3  1  0  0  0  0
 23  3  1  0  0  0  0
 24  4  1  0  0  0  0
 25  5  1  0  0  0  0
 26  5  1  0  0  0  0
 27  6  1  0  0  0  0
 28  6  1  0  0  0  0
 29  7  1  0  0  0  0
 30  7  1  0  0  0  0
  8  4  1  0  0  0  0
 31  8  1  0  0  0  0
 32  8  1  0  0  0  0
 11 10  2  0  0  0  0
 12 10  1  0  0  0  0
 33 12  1  0  0  0  0
 13 12  1  0  0  0  0
 18 13  1  0  0  0  0
 14 13  2  0  0  0  0
 34 14  1  0  0  0  0
 15 12  1  0  0  0  0
 35 15  1  0  0  0  0
 36 15  1  0  0  0  0
 16 15  1  0  0  0  0
 37 16  1  0  0  0  0
 38 16  1  0  0  0  0
 17 16  1  0  0  0  0
 39 17  1  0  0  0  0
 40 17  1  0  0  0  0
 19 18  2  0  0  0  0
 20 14  1  0  0  0  0
 21 20  1  0  0  0  0
 41 21  1  0  0  0  0
 42 21  1  0  0  0  0
 43 21  1  0  0  0  0
  9  8  1  0  0  0  0
 18 17  1  0  0  0  0
 20 19  1  0  0  0  0
M  END
>  <FittedScore>
-34.22

$$$$
