A71EV2A-x4608a_lowest-energy
  FITTED

 43 45     0  0  0  0  0  0  0999 V2000
    9.8505   16.6154   19.4787 O    0  0  0  0  0  0  0  0  0  0  0  0
   10.2697   15.5085   19.7642 C    0  0  0  0  0  0  0  0  0  0  0  0
   10.6942   14.6614   18.8023 N    0  0  0  0  0  0  0  0  0  0  0  0
   10.1939   14.9109   21.1701 C    0  0  0  0  0  0  0  0  0  0  0  0
   11.3339   15.4393   22.0827 C    0  0  0  0  0  0  0  0  0  0  0  0
   11.2419   14.7789   23.4826 C    0  0  0  0  0  0  0  0  0  0  0  0
    9.8094   14.8414   24.0963 C    0  0  0  0  0  0  0  0  0  0  0  0
    8.8095   15.1376   21.8504 C    0  0  0  0  0  0  0  0  0  0  0  0
    8.6751   14.4474   23.1771 N    0  0  0  0  0  0  0  0  0  0  0  0
    7.6058   13.6100   23.4689 C    0  0  0  0  0  0  0  0  0  0  0  0
    6.8260   13.2684   22.5913 O    0  0  0  0  0  0  0  0  0  0  0  0
    7.4972   12.8869   24.8322 C    0  0  0  0  0  0  0  0  0  0  0  0
    8.1100   11.4927   24.7106 C    0  0  0  0  0  0  0  0  0  0  0  0
    9.1628   11.0639   23.9383 C    0  0  0  0  0  0  0  0  0  0  0  0
    6.0266   12.8443   25.3842 C    0  0  0  0  0  0  0  0  0  0  0  0
    5.8869   11.8507   26.5784 C    0  0  0  0  0  0  0  0  0  0  0  0
    6.3363   10.4102   26.1888 C    0  0  0  0  0  0  0  0  0  0  0  0
    7.5724   10.3676   25.3014 C    0  0  0  0  0  0  0  0  0  0  0  0
    8.2364    9.1431   24.8217 N    0  0  0  0  0  0  0  0  0  0  0  0
    9.2128    9.7083   24.0513 N    0  0  0  0  0  0  0  0  0  0  0  0
   10.0014    8.8432   23.1751 C    0  0  0  0  0  0  0  0  0  0  0  0
   10.6046   14.9223   17.8252 H    0  0  0  0  0  0  0  0  0  0  0  0
   10.8895   13.6906   19.0444 H    0  0  0  0  0  0  0  0  0  0  0  0
   10.3209   13.8218   21.0989 H    0  0  0  0  0  0  0  0  0  0  0  0
   12.3057   15.2087   21.6373 H    0  0  0  0  0  0  0  0  0  0  0  0
   11.2775   16.5291   22.1782 H    0  0  0  0  0  0  0  0  0  0  0  0
   11.5544   13.7328   23.4100 H    0  0  0  0  0  0  0  0  0  0  0  0
   11.9470   15.2683   24.1588 H    0  0  0  0  0  0  0  0  0  0  0  0
    9.8798   14.2126   24.9786 H    0  0  0  0  0  0  0  0  0  0  0  0
    9.6159   15.8504   24.4687 H    0  0  0  0  0  0  0  0  0  0  0  0
    8.0446   14.8235   21.1360 H    0  0  0  0  0  0  0  0  0  0  0  0
    8.6313   16.2069   22.0001 H    0  0  0  0  0  0  0  0  0  0  0  0
    8.0318   13.4103   25.6223 H    0  0  0  0  0  0  0  0  0  0  0  0
    9.8113   11.6715   23.3092 H    0  0  0  0  0  0  0  0  0  0  0  0
    5.7252   13.8469   25.7005 H    0  0  0  0  0  0  0  0  0  0  0  0
    5.3213   12.5368   24.6060 H    0  0  0  0  0  0  0  0  0  0  0  0
    6.4961   12.2058   27.4146 H    0  0  0  0  0  0  0  0  0  0  0  0
    4.8511   11.8320   26.9252 H    0  0  0  0  0  0  0  0  0  0  0  0
    6.5349    9.8359   27.0963 H    0  0  0  0  0  0  0  0  0  0  0  0
    5.5171    9.9097   25.6666 H    0  0  0  0  0  0  0  0  0  0  0  0
   11.0638    9.0881   23.2500 H    0  0  0  0  0  0  0  0  0  0  0  0
    9.7080    8.9725   22.1305 H    0  0  0  0  0  0  0  0  0  0  0  0
    9.9042    7.7813   23.4140 H    0  0  0  0  0  0  0  0  0  0  0  0
  9 10  1  0  0  0  0
  7  9  1  0  0  0  0
  6  7  1  0  0  0  0
  5  6  1  0  0  0  0
  4  5  1  0  0  0  0
  2  4  1  0  0  0  0
  1  2  2  0  0  0  0
  3  2  1  0  0  0  0
 22  3  1  0  0  0  0
 23  3  1  0  0  0  0
 24  4  1  0  0  0  0
 25  5  1  0  0  0  0
 26  5  1  0  0  0  0
 27  6  1  0  0  0  0
 28  6  1  0  0  0  0
 29  7  1  0  0  0  0
 30  7  1  0  0  0  0
  8  4  1  0  0  0  0
 31  8  1  0  0  0  0
 32  8  1  0  0  0  0
 11 10  2  0  0  0  0
 12 10  1  0  0  0  0
 33 12  1  0  0  0  0
 13 12  1  0  0  0  0
 18 13  1  0  0  0  0
 14 13  2  0  0  0  0
 34 14  1  0  0  0  0
 15 12  1  0  0  0  0
 35 15  1  0  0  0  0
 36 15  1  0  0  0  0
 16 15  1  0  0  0  0
 37 16  1  0  0  0  0
 38 16  1  0  0  0  0
 17 16  1  0  0  0  0
 39 17  1  0  0  0  0
 40 17  1  0  0  0  0
 19 18  2  0  0  0  0
 20 14  1  0  0  0  0
 21 20  1  0  0  0  0
 41 21  1  0  0  0  0
 42 21  1  0  0  0  0
 43 21  1  0  0  0  0
  9  8  1  0  0  0  0
 18 17  1  0  0  0  0
 20 19  1  0  0  0  0
M  END
>  <FittedScore>
-33.72

$$$$
