A71EV2A-x5598b_best-RMSD
  FITTED

 52 54     0  0  0  0  0  0  0999 V2000
    9.7634   16.7050   19.4250 O    0  0  0  0  0  0  0  0  0  0  0  0
   10.2450   15.6430   19.7769 C    0  0  0  0  0  0  0  0  0  0  0  0
   10.7208   14.7741   18.8624 N    0  0  0  0  0  0  0  0  0  0  0  0
   10.2229   15.1595   21.2218 C    0  0  0  0  0  0  0  0  0  0  0  0
   11.3363   15.8733   22.0480 C    0  0  0  0  0  0  0  0  0  0  0  0
   11.2794   15.4552   23.5415 C    0  0  0  0  0  0  0  0  0  0  0  0
    9.8437   15.5580   24.1312 C    0  0  0  0  0  0  0  0  0  0  0  0
    8.8297   15.3589   21.8978 C    0  0  0  0  0  0  0  0  0  0  0  0
    8.8175   14.8339   23.3065 N    0  0  0  0  0  0  0  0  0  0  0  0
    8.0601   13.7469   23.6743 C    0  0  0  0  0  0  0  0  0  0  0  0
    7.3569   13.1587   22.8754 O    0  0  0  0  0  0  0  0  0  0  0  0
    8.1472   13.3168   24.9686 N    0  0  0  0  0  0  0  0  0  0  0  0
    7.5897   12.0995   25.4877 C    0  0  0  0  0  0  0  0  0  0  0  0
    8.0943   10.8243   25.1295 C    0  0  0  0  0  0  0  0  0  0  0  0
    9.5452   10.6680   24.0845 S    0  0  0  0  0  0  0  0  0  0  0  0
    9.5494    8.9760   23.4030 C    0  0  0  0  0  0  0  0  0  0  0  0
    6.4878   12.2031   26.3523 C    0  0  0  0  0  0  0  0  0  0  0  0
    5.8085   11.0548   26.8036 C    0  0  0  0  0  0  0  0  0  0  0  0
    6.3003    9.7876   26.4215 C    0  0  0  0  0  0  0  0  0  0  0  0
    7.4417    9.6783   25.6231 C    0  0  0  0  0  0  0  0  0  0  0  0
    4.6779   11.1704   27.5978 N    0  0  0  0  0  0  0  0  0  0  0  0
    4.3969   10.2238   28.7221 C    0  0  0  0  0  0  0  0  0  0  0  0
    3.7048   10.9388   29.9155 C    0  0  0  0  0  0  0  0  0  0  0  0
    2.5897   11.7570   29.4477 O    0  0  0  0  0  0  0  0  0  0  0  0
    2.9309   12.7546   28.4389 C    0  0  0  0  0  0  0  0  0  0  0  0
    3.5363   12.0416   27.1982 C    0  0  0  0  0  0  0  0  0  0  0  0
   10.9300   13.8194   19.1348 H    0  0  0  0  0  0  0  0  0  0  0  0
   10.6678   15.0118   17.8780 H    0  0  0  0  0  0  0  0  0  0  0  0
   10.4274   14.0810   21.2555 H    0  0  0  0  0  0  0  0  0  0  0  0
   12.3125   15.6187   21.6309 H    0  0  0  0  0  0  0  0  0  0  0  0
   11.2271   16.9586   21.9667 H    0  0  0  0  0  0  0  0  0  0  0  0
   11.6364   14.4243   23.6373 H    0  0  0  0  0  0  0  0  0  0  0  0
   11.9587   16.0874   24.1174 H    0  0  0  0  0  0  0  0  0  0  0  0
    9.8913   15.2070   25.1615 H    0  0  0  0  0  0  0  0  0  0  0  0
    9.5522   16.6109   24.2080 H    0  0  0  0  0  0  0  0  0  0  0  0
    8.0688   14.8957   21.2617 H    0  0  0  0  0  0  0  0  0  0  0  0
    8.5532   16.4220   21.9124 H    0  0  0  0  0  0  0  0  0  0  0  0
    8.5633   13.9195   25.6782 H    0  0  0  0  0  0  0  0  0  0  0  0
    9.8062    8.2578   24.1847 H    0  0  0  0  0  0  0  0  0  0  0  0
   10.3094    8.9273   22.6232 H    0  0  0  0  0  0  0  0  0  0  0  0
    8.5762    8.7232   22.9727 H    0  0  0  0  0  0  0  0  0  0  0  0
    6.1440   13.1912   26.6555 H    0  0  0  0  0  0  0  0  0  0  0  0
    5.8064    8.8667   26.7352 H    0  0  0  0  0  0  0  0  0  0  0  0
    7.7947    8.6798   25.3970 H    0  0  0  0  0  0  0  0  0  0  0  0
    3.7514    9.4071   28.3858 H    0  0  0  0  0  0  0  0  0  0  0  0
    5.3085    9.7550   29.1047 H    0  0  0  0  0  0  0  0  0  0  0  0
    3.3247   10.2042   30.6273 H    0  0  0  0  0  0  0  0  0  0  0  0
    4.4184   11.5704   30.4508 H    0  0  0  0  0  0  0  0  0  0  0  0
    2.0272   13.2947   28.1611 H    0  0  0  0  0  0  0  0  0  0  0  0
    3.6288   13.4829   28.8624 H    0  0  0  0  0  0  0  0  0  0  0  0
    2.7534   11.4406   26.7312 H    0  0  0  0  0  0  0  0  0  0  0  0
    3.7972   12.7958   26.4506 H    0  0  0  0  0  0  0  0  0  0  0  0
 10 12  1  0  0  0  0
  9 10  1  0  0  0  0
  7  9  1  0  0  0  0
  6  7  1  0  0  0  0
  5  6  1  0  0  0  0
  4  5  1  0  0  0  0
  2  4  1  0  0  0  0
  1  2  2  0  0  0  0
  3  2  1  0  0  0  0
 27  3  1  0  0  0  0
 28  3  1  0  0  0  0
 29  4  1  0  0  0  0
 30  5  1  0  0  0  0
 31  5  1  0  0  0  0
 32  6  1  0  0  0  0
 33  6  1  0  0  0  0
 34  7  1  0  0  0  0
 35  7  1  0  0  0  0
  8  4  1  0  0  0  0
 36  8  1  0  0  0  0
 37  8  1  0  0  0  0
 11 10  2  0  0  0  0
 38 12  1  0  0  0  0
 13 12  1  0  0  0  0
 14 13  1  0  0  0  0
 20 14  2  0  0  0  0
 15 14  1  0  0  0  0
 16 15  1  0  0  0  0
 39 16  1  0  0  0  0
 40 16  1  0  0  0  0
 41 16  1  0  0  0  0
 17 13  2  0  0  0  0
 42 17  1  0  0  0  0
 18 17  1  0  0  0  0
 19 18  2  0  0  0  0
 43 19  1  0  0  0  0
 44 20  1  0  0  0  0
 21 18  1  0  0  0  0
 26 21  1  0  0  0  0
 22 21  1  0  0  0  0
 45 22  1  0  0  0  0
 46 22  1  0  0  0  0
 23 22  1  0  0  0  0
 47 23  1  0  0  0  0
 48 23  1  0  0  0  0
 24 23  1  0  0  0  0
 25 24  1  0  0  0  0
 49 25  1  0  0  0  0
 50 25  1  0  0  0  0
 51 26  1  0  0  0  0
 52 26  1  0  0  0  0
  9  8  1  0  0  0  0
 20 19  1  0  0  0  0
 26 25  1  0  0  0  0
M  END
>  <FittedScore>
-35.66

$$$$
