A71EV2A-x5676a_best-RMSD
  FITTED

 39 40     0  0  0  0  0  0  0999 V2000
    4.8501   15.8873   23.2094 C    0  0  0  0  0  0  0  0  0  0  0  0
    6.2677   15.7874   22.5968 C    0  0  0  0  0  0  0  0  0  0  0  0
    7.4457   15.3749   23.5683 C    0  0  0  0  0  0  0  0  0  0  0  0
    7.3330   13.9327   24.1390 C    0  0  0  0  0  0  0  0  0  0  0  0
    6.3836   13.6936   25.1527 C    0  0  0  0  0  0  0  0  0  0  0  0
    6.1374   12.4048   25.6265 C    0  0  0  0  0  0  0  0  0  0  0  0
    6.8941   11.3257   25.1494 C    0  0  0  0  0  0  0  0  0  0  0  0
    6.4450    9.7504   25.7065 CL   0  0  0  0  0  0  0  0  0  0  0  0
    7.9433   11.5523   24.2328 C    0  0  0  0  0  0  0  0  0  0  0  0
    9.0136   10.2726   23.7400 CL   0  0  0  0  0  0  0  0  0  0  0  0
    8.1294   12.8421   23.7034 C    0  0  0  0  0  0  0  0  0  0  0  0
    8.8564   15.6543   23.0816 N    0  0  0  0  0  0  0  0  0  0  0  0
    9.0296   15.5974   21.5910 C    0  0  0  0  0  0  0  0  0  0  0  0
   10.4839   15.5593   21.0523 C    0  0  0  0  0  0  0  0  0  0  0  0
   10.5041   15.9049   19.5548 C    0  0  0  0  0  0  0  0  0  0  0  0
   10.6532   14.8670   18.7139 N    0  0  0  0  0  0  0  0  0  0  0  0
   10.1402   16.9749   19.1066 O    0  0  0  0  0  0  0  0  0  0  0  0
   11.3884   16.4911   21.8988 C    0  0  0  0  0  0  0  0  0  0  0  0
   11.3252   16.0531   23.3855 C    0  0  0  0  0  0  0  0  0  0  0  0
    9.9087   15.8930   23.9487 C    0  0  0  0  0  0  0  0  0  0  0  0
    9.7670   15.8827   25.1608 O    0  0  0  0  0  0  0  0  0  0  0  0
    4.1656   16.3458   22.4894 H    0  0  0  0  0  0  0  0  0  0  0  0
    4.8469   16.5129   24.1081 H    0  0  0  0  0  0  0  0  0  0  0  0
    4.4483   14.9021   23.4554 H    0  0  0  0  0  0  0  0  0  0  0  0
    6.4763   16.7750   22.1733 H    0  0  0  0  0  0  0  0  0  0  0  0
    6.2119   15.0847   21.7613 H    0  0  0  0  0  0  0  0  0  0  0  0
    7.3018   16.0527   24.4163 H    0  0  0  0  0  0  0  0  0  0  0  0
    5.8029   14.5094   25.5642 H    0  0  0  0  0  0  0  0  0  0  0  0
    5.3518   12.2464   26.3613 H    0  0  0  0  0  0  0  0  0  0  0  0
    8.9056   12.9753   22.9556 H    0  0  0  0  0  0  0  0  0  0  0  0
    8.5460   16.4861   21.1779 H    0  0  0  0  0  0  0  0  0  0  0  0
    8.5127   14.7298   21.1692 H    0  0  0  0  0  0  0  0  0  0  0  0
   10.8577   14.5368   21.1870 H    0  0  0  0  0  0  0  0  0  0  0  0
   10.5583   15.0083   17.7159 H    0  0  0  0  0  0  0  0  0  0  0  0
   10.7006   13.9116   19.0617 H    0  0  0  0  0  0  0  0  0  0  0  0
   11.0475   17.5269   21.8152 H    0  0  0  0  0  0  0  0  0  0  0  0
   12.4210   16.4563   21.5401 H    0  0  0  0  0  0  0  0  0  0  0  0
   11.8692   16.7892   23.9854 H    0  0  0  0  0  0  0  0  0  0  0  0
   11.8518   15.1012   23.5081 H    0  0  0  0  0  0  0  0  0  0  0  0
  3 12  1  0  0  0  0
  2  3  1  0  0  0  0
  1  2  1  0  0  0  0
 22  1  1  0  0  0  0
 23  1  1  0  0  0  0
 24  1  1  0  0  0  0
 25  2  1  0  0  0  0
 26  2  1  0  0  0  0
  4  3  1  0  0  0  0
 27  3  1  0  0  0  0
  5  4  2  0  0  0  0
  6  5  1  0  0  0  0
 28  5  1  0  0  0  0
  7  6  2  0  0  0  0
 29  6  1  0  0  0  0
  8  7  1  0  0  0  0
  9  7  1  0  0  0  0
 10  9  1  0  0  0  0
 11  9  2  0  0  0  0
 30 11  1  0  0  0  0
 13 12  1  0  0  0  0
 14 13  1  0  0  0  0
 31 13  1  0  0  0  0
 32 13  1  0  0  0  0
 15 14  1  0  0  0  0
 18 14  1  0  0  0  0
 33 14  1  0  0  0  0
 16 15  1  0  0  0  0
 17 15  2  0  0  0  0
 34 16  1  0  0  0  0
 35 16  1  0  0  0  0
 19 18  1  0  0  0  0
 36 18  1  0  0  0  0
 37 18  1  0  0  0  0
 20 19  1  0  0  0  0
 38 19  1  0  0  0  0
 39 19  1  0  0  0  0
 21 20  2  0  0  0  0
 11  4  1  0  0  0  0
 20 12  1  0  0  0  0
M  END
>  <FittedScore>
-27.91

$$$$
