A71EV2A-x7350b_lowest-energy
  FITTED

 48 51     0  0  0  0  0  0  0999 V2000
    5.4545   10.5409   27.1881 C    0  0  0  0  0  0  0  0  0  0  0  0
    6.0365    9.9364   25.5593 S    0  0  0  0  0  0  0  0  0  0  0  0
    6.9891   11.2500   24.7763 C    0  0  0  0  0  0  0  0  0  0  0  0
    8.2853   10.8840   24.3642 C    0  0  0  0  0  0  0  0  0  0  0  0
    9.1177   11.7905   23.7056 C    0  0  0  0  0  0  0  0  0  0  0  0
    8.6854   13.0924   23.3681 C    0  0  0  0  0  0  0  0  0  0  0  0
    9.5859   14.0395   22.6080 C    0  0  0  0  0  0  0  0  0  0  0  0
   10.9935   14.1090   22.7988 C    0  0  0  0  0  0  0  0  0  0  0  0
   11.7181   15.1470   22.1969 C    0  0  0  0  0  0  0  0  0  0  0  0
   11.0675   16.0536   21.3597 C    0  0  0  0  0  0  0  0  0  0  0  0
    9.7046   15.8557   21.1080 C    0  0  0  0  0  0  0  0  0  0  0  0
    8.9676   14.9035   21.7327 N    0  0  0  0  0  0  0  0  0  0  0  0
    7.3780   13.4593   23.8090 C    0  0  0  0  0  0  0  0  0  0  0  0
    6.5326   12.5629   24.5114 C    0  0  0  0  0  0  0  0  0  0  0  0
    5.2276   12.9564   24.8648 O    0  0  0  0  0  0  0  0  0  0  0  0
    4.7969   13.9733   25.6944 C    0  0  0  0  0  0  0  0  0  0  0  0
    5.5955   14.6908   26.2953 O    0  0  0  0  0  0  0  0  0  0  0  0
    3.4307   14.1220   25.9274 N    0  0  0  0  0  0  0  0  0  0  0  0
    2.8504   15.0499   26.9684 C    0  0  0  0  0  0  0  0  0  0  0  0
    1.8014   14.4136   27.9512 C    0  0  0  0  0  0  0  0  0  0  0  0
    2.4355   13.5613   29.0745 C    0  0  0  0  0  0  0  0  0  0  0  0
    2.6259   14.1379   30.2752 N    0  0  0  0  0  0  0  0  0  0  0  0
    2.7658   12.3991   28.9345 O    0  0  0  0  0  0  0  0  0  0  0  0
    0.6564   13.6641   27.1919 C    0  0  0  0  0  0  0  0  0  0  0  0
    1.2277   12.8420   26.0223 C    0  0  0  0  0  0  0  0  0  0  0  0
    1.0245   13.3980   24.6417 C    0  0  0  0  0  0  0  0  0  0  0  0
    2.4125   13.2480   25.1895 C    0  0  0  0  0  0  0  0  0  0  0  0
    6.3363   10.7846   27.7857 H    0  0  0  0  0  0  0  0  0  0  0  0
    4.9689    9.7580   27.7775 H    0  0  0  0  0  0  0  0  0  0  0  0
    4.8150   11.4057   27.0936 H    0  0  0  0  0  0  0  0  0  0  0  0
    8.6644    9.8811   24.5413 H    0  0  0  0  0  0  0  0  0  0  0  0
   10.1168   11.4514   23.4343 H    0  0  0  0  0  0  0  0  0  0  0  0
   11.5101   13.4013   23.4370 H    0  0  0  0  0  0  0  0  0  0  0  0
   12.7826   15.2614   22.3970 H    0  0  0  0  0  0  0  0  0  0  0  0
   11.5983   16.9075   20.9421 H    0  0  0  0  0  0  0  0  0  0  0  0
    9.2020   16.5581   20.4470 H    0  0  0  0  0  0  0  0  0  0  0  0
    6.9916   14.4499   23.6011 H    0  0  0  0  0  0  0  0  0  0  0  0
    2.3705   15.8779   26.4328 H    0  0  0  0  0  0  0  0  0  0  0  0
    3.6084   15.5197   27.5976 H    0  0  0  0  0  0  0  0  0  0  0  0
    1.3108   15.2680   28.4437 H    0  0  0  0  0  0  0  0  0  0  0  0
    2.4012   15.1165   30.3900 H    0  0  0  0  0  0  0  0  0  0  0  0
    3.0966   13.6354   31.0046 H    0  0  0  0  0  0  0  0  0  0  0  0
   -0.0664   14.3961   26.8460 H    0  0  0  0  0  0  0  0  0  0  0  0
    0.1152   13.0118   27.8822 H    0  0  0  0  0  0  0  0  0  0  0  0
    1.2207   11.7707   26.2077 H    0  0  0  0  0  0  0  0  0  0  0  0
    0.6025   14.3930   24.5304 H    0  0  0  0  0  0  0  0  0  0  0  0
    0.6810   12.6886   23.8955 H    0  0  0  0  0  0  0  0  0  0  0  0
    3.0276   12.4509   24.8221 H    0  0  0  0  0  0  0  0  0  0  0  0
 14 15  1  0  0  0  0
 13 14  2  0  0  0  0
  6 13  1  0  0  0  0
  5  6  2  0  0  0  0
  4  5  1  0  0  0  0
  3  4  2  0  0  0  0
  2  3  1  0  0  0  0
  1  2  1  0  0  0  0
 28  1  1  0  0  0  0
 29  1  1  0  0  0  0
 30  1  1  0  0  0  0
 31  4  1  0  0  0  0
 32  5  1  0  0  0  0
  7  6  1  0  0  0  0
  8  7  2  0  0  0  0
  9  8  1  0  0  0  0
 33  8  1  0  0  0  0
 10  9  2  0  0  0  0
 34  9  1  0  0  0  0
 11 10  1  0  0  0  0
 35 10  1  0  0  0  0
 12 11  2  0  0  0  0
 36 11  1  0  0  0  0
 37 13  1  0  0  0  0
 16 15  1  0  0  0  0
 17 16  2  0  0  0  0
 18 16  1  0  0  0  0
 19 18  1  0  0  0  0
 20 19  1  0  0  0  0
 38 19  1  0  0  0  0
 39 19  1  0  0  0  0
 21 20  1  0  0  0  0
 24 20  1  0  0  0  0
 40 20  1  0  0  0  0
 22 21  1  0  0  0  0
 23 21  2  0  0  0  0
 41 22  1  0  0  0  0
 42 22  1  0  0  0  0
 43 24  1  0  0  0  0
 44 24  1  0  0  0  0
 25 24  1  0  0  0  0
 26 25  1  0  0  0  0
 45 25  1  0  0  0  0
 46 26  1  0  0  0  0
 47 26  1  0  0  0  0
 27 26  1  0  0  0  0
 48 27  1  0  0  0  0
 12  7  1  0  0  0  0
 14  3  1  0  0  0  0
 27 18  1  0  0  0  0
 27 25  1  0  0  0  0
M  END
>  <FittedScore>
-25.77

$$$$
