A71EV2A-x7350b_best-RMSD
  FITTED

 48 51     0  0  0  0  0  0  0999 V2000
    5.2759   10.1399   26.9864 C    0  0  0  0  0  0  0  0  0  0  0  0
    6.2378    9.7147   25.5002 S    0  0  0  0  0  0  0  0  0  0  0  0
    7.2085   11.0843   24.9193 C    0  0  0  0  0  0  0  0  0  0  0  0
    8.2466   10.7434   24.0416 C    0  0  0  0  0  0  0  0  0  0  0  0
    8.9674   11.7387   23.3889 C    0  0  0  0  0  0  0  0  0  0  0  0
    8.6764   13.1082   23.6039 C    0  0  0  0  0  0  0  0  0  0  0  0
    9.5176   14.1385   22.9583 C    0  0  0  0  0  0  0  0  0  0  0  0
    9.1385   15.0092   21.9121 C    0  0  0  0  0  0  0  0  0  0  0  0
   10.1148   15.8550   21.3667 C    0  0  0  0  0  0  0  0  0  0  0  0
   11.4220   15.8128   21.8698 C    0  0  0  0  0  0  0  0  0  0  0  0
   11.7274   14.9246   22.9090 C    0  0  0  0  0  0  0  0  0  0  0  0
   10.7970   14.1050   23.4454 N    0  0  0  0  0  0  0  0  0  0  0  0
    7.6733   13.4421   24.5371 C    0  0  0  0  0  0  0  0  0  0  0  0
    6.9805   12.4461   25.2213 C    0  0  0  0  0  0  0  0  0  0  0  0
    6.0927   12.8622   26.2063 O    0  0  0  0  0  0  0  0  0  0  0  0
    4.8407   13.3371   25.9766 C    0  0  0  0  0  0  0  0  0  0  0  0
    4.3370   13.2075   24.8723 O    0  0  0  0  0  0  0  0  0  0  0  0
    4.1904   13.9815   27.0187 N    0  0  0  0  0  0  0  0  0  0  0  0
    2.7938   14.4914   26.9019 C    0  0  0  0  0  0  0  0  0  0  0  0
    2.7686   16.0365   27.1418 C    0  0  0  0  0  0  0  0  0  0  0  0
    3.6018   16.7744   26.0648 C    0  0  0  0  0  0  0  0  0  0  0  0
    4.2131   17.9271   26.3934 N    0  0  0  0  0  0  0  0  0  0  0  0
    3.6731   16.4003   24.9103 O    0  0  0  0  0  0  0  0  0  0  0  0
    3.1404   16.3279   28.6471 C    0  0  0  0  0  0  0  0  0  0  0  0
    4.4592   15.6112   29.0079 C    0  0  0  0  0  0  0  0  0  0  0  0
    4.4287   14.3031   29.7576 C    0  0  0  0  0  0  0  0  0  0  0  0
    4.8935   14.3309   28.3277 C    0  0  0  0  0  0  0  0  0  0  0  0
    5.0566    9.2300   27.5302 H    0  0  0  0  0  0  0  0  0  0  0  0
    4.3211   10.5816   26.7246 H    0  0  0  0  0  0  0  0  0  0  0  0
    5.8792   10.7944   27.6253 H    0  0  0  0  0  0  0  0  0  0  0  0
    8.4759    9.7042   23.8205 H    0  0  0  0  0  0  0  0  0  0  0  0
    9.7652   11.4476   22.6965 H    0  0  0  0  0  0  0  0  0  0  0  0
    8.1207   15.0334   21.5237 H    0  0  0  0  0  0  0  0  0  0  0  0
    9.8680   16.5551   20.5717 H    0  0  0  0  0  0  0  0  0  0  0  0
   12.1913   16.4609   21.4718 H    0  0  0  0  0  0  0  0  0  0  0  0
   12.7380   14.8898   23.2957 H    0  0  0  0  0  0  0  0  0  0  0  0
    7.4376   14.4833   24.7634 H    0  0  0  0  0  0  0  0  0  0  0  0
    2.1745   13.9851   27.6461 H    0  0  0  0  0  0  0  0  0  0  0  0
    2.3241   14.2493   25.9473 H    0  0  0  0  0  0  0  0  0  0  0  0
    1.7355   16.3642   26.9984 H    0  0  0  0  0  0  0  0  0  0  0  0
    4.0837   18.3207   27.3137 H    0  0  0  0  0  0  0  0  0  0  0  0
    4.6763   18.4693   25.6800 H    0  0  0  0  0  0  0  0  0  0  0  0
    2.3235   15.9866   29.2872 H    0  0  0  0  0  0  0  0  0  0  0  0
    3.2079   17.4009   28.8416 H    0  0  0  0  0  0  0  0  0  0  0  0
    5.2536   16.3099   29.2587 H    0  0  0  0  0  0  0  0  0  0  0  0
    3.4606   13.8559   29.9793 H    0  0  0  0  0  0  0  0  0  0  0  0
    5.1639   14.1690   30.5448 H    0  0  0  0  0  0  0  0  0  0  0  0
    5.9358   14.2957   28.0278 H    0  0  0  0  0  0  0  0  0  0  0  0
 14 15  1  0  0  0  0
 13 14  2  0  0  0  0
  6 13  1  0  0  0  0
  5  6  2  0  0  0  0
  4  5  1  0  0  0  0
  3  4  2  0  0  0  0
  2  3  1  0  0  0  0
  1  2  1  0  0  0  0
 28  1  1  0  0  0  0
 29  1  1  0  0  0  0
 30  1  1  0  0  0  0
 31  4  1  0  0  0  0
 32  5  1  0  0  0  0
  7  6  1  0  0  0  0
  8  7  2  0  0  0  0
  9  8  1  0  0  0  0
 33  8  1  0  0  0  0
 10  9  2  0  0  0  0
 34  9  1  0  0  0  0
 11 10  1  0  0  0  0
 35 10  1  0  0  0  0
 12 11  2  0  0  0  0
 36 11  1  0  0  0  0
 37 13  1  0  0  0  0
 16 15  1  0  0  0  0
 17 16  2  0  0  0  0
 18 16  1  0  0  0  0
 19 18  1  0  0  0  0
 20 19  1  0  0  0  0
 38 19  1  0  0  0  0
 39 19  1  0  0  0  0
 21 20  1  0  0  0  0
 24 20  1  0  0  0  0
 40 20  1  0  0  0  0
 22 21  1  0  0  0  0
 23 21  2  0  0  0  0
 41 22  1  0  0  0  0
 42 22  1  0  0  0  0
 43 24  1  0  0  0  0
 44 24  1  0  0  0  0
 25 24  1  0  0  0  0
 26 25  1  0  0  0  0
 45 25  1  0  0  0  0
 46 26  1  0  0  0  0
 47 26  1  0  0  0  0
 27 26  1  0  0  0  0
 48 27  1  0  0  0  0
 12  7  1  0  0  0  0
 14  3  1  0  0  0  0
 27 18  1  0  0  0  0
 27 25  1  0  0  0  0
M  END
>  <FittedScore>
-24.65

$$$$
