A71EV2A-x5808a_lowest-energy
  FITTED

 56 59     0  0  0  0  0  0  0999 V2000
    9.6565    8.5097   23.3986 C    0  0  0  0  0  0  0  0  0  0  0  0
    9.4819   10.2881   23.7526 S    0  0  0  0  0  0  0  0  0  0  0  0
    8.0810   10.4489   24.8524 C    0  0  0  0  0  0  0  0  0  0  0  0
    7.4221    9.3022   25.1737 N    0  0  0  0  0  0  0  0  0  0  0  0
    6.3633    9.3801   26.0116 C    0  0  0  0  0  0  0  0  0  0  0  0
    5.8852   10.5345   26.5233 N    0  0  0  0  0  0  0  0  0  0  0  0
    6.4802   11.7108   26.1829 C    0  0  0  0  0  0  0  0  0  0  0  0
    5.8850   12.8577   26.6924 N    0  0  0  0  0  0  0  0  0  0  0  0
    5.4376   14.0522   25.9157 C    0  0  0  0  0  0  0  0  0  0  0  0
    4.0113   14.2120   26.5209 C    0  0  0  0  0  0  0  0  0  0  0  0
    2.8320   14.1307   25.5881 C    0  0  0  0  0  0  0  0  0  0  0  0
    1.9117   12.9827   25.4348 N    0  0  0  0  0  0  0  0  0  0  0  0
    1.2421   13.1344   24.3494 N    0  0  0  0  0  0  0  0  0  0  0  0
    1.5981   14.4429   23.7715 C    0  0  0  0  0  0  0  0  0  0  0  0
    2.4989   14.9921   24.6054 N    0  0  0  0  0  0  0  0  0  0  0  0
    3.2409   16.2168   24.3096 C    0  0  0  0  0  0  0  0  0  0  0  0
    4.5383   13.0075   27.3447 C    0  0  0  0  0  0  0  0  0  0  0  0
    7.6511   11.7109   25.3588 C    0  0  0  0  0  0  0  0  0  0  0  0
    8.4281   13.0024   25.0180 C    0  0  0  0  0  0  0  0  0  0  0  0
    8.0796   13.6268   23.6532 C    0  0  0  0  0  0  0  0  0  0  0  0
    7.2893   13.0551   22.9121 O    0  0  0  0  0  0  0  0  0  0  0  0
    8.7622   14.7554   23.2365 N    0  0  0  0  0  0  0  0  0  0  0  0
    9.7393   15.5629   24.0499 C    0  0  0  0  0  0  0  0  0  0  0  0
   11.1881   15.5035   23.4920 C    0  0  0  0  0  0  0  0  0  0  0  0
   11.2394   15.9271   21.9998 C    0  0  0  0  0  0  0  0  0  0  0  0
   10.1769   15.1528   21.1617 C    0  0  0  0  0  0  0  0  0  0  0  0
   10.1982   15.6203   19.7062 C    0  0  0  0  0  0  0  0  0  0  0  0
   10.6873   14.7361   18.8103 N    0  0  0  0  0  0  0  0  0  0  0  0
    9.8124   16.7172   19.3475 O    0  0  0  0  0  0  0  0  0  0  0  0
    8.7567   15.2469   21.8145 C    0  0  0  0  0  0  0  0  0  0  0  0
    9.7932    7.9498   24.3260 H    0  0  0  0  0  0  0  0  0  0  0  0
   10.5280    8.3475   22.7615 H    0  0  0  0  0  0  0  0  0  0  0  0
    8.7672    8.1472   22.8772 H    0  0  0  0  0  0  0  0  0  0  0  0
    5.8603    8.4555   26.2844 H    0  0  0  0  0  0  0  0  0  0  0  0
    5.4309   13.8738   24.8348 H    0  0  0  0  0  0  0  0  0  0  0  0
    6.0833   14.9236   26.0778 H    0  0  0  0  0  0  0  0  0  0  0  0
    3.7646   15.1499   27.0303 H    0  0  0  0  0  0  0  0  0  0  0  0
    1.2152   14.8461   22.8355 H    0  0  0  0  0  0  0  0  0  0  0  0
    3.4390   16.8129   25.2038 H    0  0  0  0  0  0  0  0  0  0  0  0
    2.6973   16.8704   23.6207 H    0  0  0  0  0  0  0  0  0  0  0  0
    4.2031   15.9969   23.8420 H    0  0  0  0  0  0  0  0  0  0  0  0
    3.8932   12.1248   27.2791 H    0  0  0  0  0  0  0  0  0  0  0  0
    4.6252   13.2228   28.4165 H    0  0  0  0  0  0  0  0  0  0  0  0
    9.5023   12.8046   25.0586 H    0  0  0  0  0  0  0  0  0  0  0  0
    8.2735   13.7338   25.8111 H    0  0  0  0  0  0  0  0  0  0  0  0
    9.7806   15.2791   25.1002 H    0  0  0  0  0  0  0  0  0  0  0  0
    9.4075   16.6067   24.0707 H    0  0  0  0  0  0  0  0  0  0  0  0
   11.5846   14.4897   23.5991 H    0  0  0  0  0  0  0  0  0  0  0  0
   11.8364   16.1615   24.0767 H    0  0  0  0  0  0  0  0  0  0  0  0
   12.2380   15.7298   21.6028 H    0  0  0  0  0  0  0  0  0  0  0  0
   11.0673   17.0061   21.9205 H    0  0  0  0  0  0  0  0  0  0  0  0
   10.4561   14.0937   21.2006 H    0  0  0  0  0  0  0  0  0  0  0  0
   10.6959   14.9611   17.8221 H    0  0  0  0  0  0  0  0  0  0  0  0
   10.8641   13.7751   19.1001 H    0  0  0  0  0  0  0  0  0  0  0  0
    8.0528   14.6975   21.1839 H    0  0  0  0  0  0  0  0  0  0  0  0
    8.3997   16.2836   21.7978 H    0  0  0  0  0  0  0  0  0  0  0  0
 19 20  1  0  0  0  0
 18 19  1  0  0  0  0
  7 18  2  0  0  0  0
  6  7  1  0  0  0  0
  5  6  2  0  0  0  0
  4  5  1  0  0  0  0
  3  4  2  0  0  0  0
  2  3  1  0  0  0  0
  1  2  1  0  0  0  0
 31  1  1  0  0  0  0
 32  1  1  0  0  0  0
 33  1  1  0  0  0  0
 34  5  1  0  0  0  0
  8  7  1  0  0  0  0
  9  8  1  0  0  0  0
 10  9  1  0  0  0  0
 35  9  1  0  0  0  0
 36  9  1  0  0  0  0
 11 10  1  0  0  0  0
 17 10  1  0  0  0  0
 37 10  1  0  0  0  0
 12 11  2  0  0  0  0
 13 12  1  0  0  0  0
 14 13  2  0  0  0  0
 15 14  1  0  0  0  0
 38 14  1  0  0  0  0
 16 15  1  0  0  0  0
 39 16  1  0  0  0  0
 40 16  1  0  0  0  0
 41 16  1  0  0  0  0
 42 17  1  0  0  0  0
 43 17  1  0  0  0  0
 44 19  1  0  0  0  0
 45 19  1  0  0  0  0
 21 20  2  0  0  0  0
 22 20  1  0  0  0  0
 23 22  1  0  0  0  0
 24 23  1  0  0  0  0
 46 23  1  0  0  0  0
 47 23  1  0  0  0  0
 25 24  1  0  0  0  0
 48 24  1  0  0  0  0
 49 24  1  0  0  0  0
 26 25  1  0  0  0  0
 50 25  1  0  0  0  0
 51 25  1  0  0  0  0
 27 26  1  0  0  0  0
 30 26  1  0  0  0  0
 52 26  1  0  0  0  0
 28 27  1  0  0  0  0
 29 27  2  0  0  0  0
 53 28  1  0  0  0  0
 54 28  1  0  0  0  0
 55 30  1  0  0  0  0
 56 30  1  0  0  0  0
 15 11  1  0  0  0  0
 17  8  1  0  0  0  0
 18  3  1  0  0  0  0
 30 22  1  0  0  0  0
M  END
>  <FittedScore>
-37.56

$$$$
