A71EV2A-x5808a_best-RMSD
  FITTED

 56 59     0  0  0  0  0  0  0999 V2000
    9.5894    8.5291   23.3400 C    0  0  0  0  0  0  0  0  0  0  0  0
    9.4827   10.2959   23.7710 S    0  0  0  0  0  0  0  0  0  0  0  0
    8.0616   10.4681   24.8467 C    0  0  0  0  0  0  0  0  0  0  0  0
    7.4248    9.3190   25.2102 N    0  0  0  0  0  0  0  0  0  0  0  0
    6.3640    9.4106   26.0441 C    0  0  0  0  0  0  0  0  0  0  0  0
    5.8490   10.5786   26.4941 N    0  0  0  0  0  0  0  0  0  0  0  0
    6.4164   11.7559   26.0992 C    0  0  0  0  0  0  0  0  0  0  0  0
    5.7693   12.9103   26.5283 N    0  0  0  0  0  0  0  0  0  0  0  0
    4.3636   13.0372   27.0393 C    0  0  0  0  0  0  0  0  0  0  0  0
    3.8820   14.2296   26.1617 C    0  0  0  0  0  0  0  0  0  0  0  0
    3.3287   15.4555   26.8550 C    0  0  0  0  0  0  0  0  0  0  0  0
    4.0948   16.2852   27.8190 N    0  0  0  0  0  0  0  0  0  0  0  0
    3.3477   17.2408   28.2383 N    0  0  0  0  0  0  0  0  0  0  0  0
    2.0227   17.0859   27.6107 C    0  0  0  0  0  0  0  0  0  0  0  0
    2.0895   16.0128   26.7933 N    0  0  0  0  0  0  0  0  0  0  0  0
    0.8794   15.3311   26.2942 C    0  0  0  0  0  0  0  0  0  0  0  0
    5.3667   14.0962   25.7080 C    0  0  0  0  0  0  0  0  0  0  0  0
    7.6034   11.7412   25.3016 C    0  0  0  0  0  0  0  0  0  0  0  0
    8.3856   13.0283   24.9482 C    0  0  0  0  0  0  0  0  0  0  0  0
    8.1187   13.5973   23.5414 C    0  0  0  0  0  0  0  0  0  0  0  0
    7.2989   13.0515   22.8177 O    0  0  0  0  0  0  0  0  0  0  0  0
    8.8451   14.6918   23.1086 N    0  0  0  0  0  0  0  0  0  0  0  0
    9.7529   15.5552   23.9443 C    0  0  0  0  0  0  0  0  0  0  0  0
   11.2134   15.6089   23.4204 C    0  0  0  0  0  0  0  0  0  0  0  0
   11.2757   16.0207   21.9259 C    0  0  0  0  0  0  0  0  0  0  0  0
   10.3081   15.1475   21.0728 C    0  0  0  0  0  0  0  0  0  0  0  0
   10.3294   15.5817   19.6096 C    0  0  0  0  0  0  0  0  0  0  0  0
   10.8282   14.6931   18.7287 N    0  0  0  0  0  0  0  0  0  0  0  0
    9.8836   16.6434   19.2175 O    0  0  0  0  0  0  0  0  0  0  0  0
    8.8644   15.1525   21.6778 C    0  0  0  0  0  0  0  0  0  0  0  0
    9.7613    7.9267   24.2350 H    0  0  0  0  0  0  0  0  0  0  0  0
   10.4152    8.3663   22.6446 H    0  0  0  0  0  0  0  0  0  0  0  0
    8.6629    8.2149   22.8532 H    0  0  0  0  0  0  0  0  0  0  0  0
    5.8915    8.4878   26.3655 H    0  0  0  0  0  0  0  0  0  0  0  0
    4.3436   13.2314   28.1194 H    0  0  0  0  0  0  0  0  0  0  0  0
    3.7369   12.1491   26.8891 H    0  0  0  0  0  0  0  0  0  0  0  0
    3.1079   14.0368   25.4154 H    0  0  0  0  0  0  0  0  0  0  0  0
    1.1612   17.7192   27.8194 H    0  0  0  0  0  0  0  0  0  0  0  0
    0.7398   14.3583   26.7730 H    0  0  0  0  0  0  0  0  0  0  0  0
    0.9259   15.1638   25.2166 H    0  0  0  0  0  0  0  0  0  0  0  0
   -0.0285   15.9139   26.4749 H    0  0  0  0  0  0  0  0  0  0  0  0
    5.9906   14.9707   25.9224 H    0  0  0  0  0  0  0  0  0  0  0  0
    5.4496   13.9181   24.6329 H    0  0  0  0  0  0  0  0  0  0  0  0
    9.4549   12.8371   25.0564 H    0  0  0  0  0  0  0  0  0  0  0  0
    8.1863   13.7912   25.7006 H    0  0  0  0  0  0  0  0  0  0  0  0
    9.7960   15.2600   24.9903 H    0  0  0  0  0  0  0  0  0  0  0  0
    9.3483   16.5723   23.9708 H    0  0  0  0  0  0  0  0  0  0  0  0
   11.6919   14.6324   23.5539 H    0  0  0  0  0  0  0  0  0  0  0  0
   11.7891   16.3241   24.0144 H    0  0  0  0  0  0  0  0  0  0  0  0
   12.2988   15.9030   21.5599 H    0  0  0  0  0  0  0  0  0  0  0  0
   11.0249   17.0831   21.8276 H    0  0  0  0  0  0  0  0  0  0  0  0
   10.6716   14.1161   21.1331 H    0  0  0  0  0  0  0  0  0  0  0  0
   10.7855   14.9005   17.7354 H    0  0  0  0  0  0  0  0  0  0  0  0
   11.0293   13.7366   19.0269 H    0  0  0  0  0  0  0  0  0  0  0  0
    8.2268   14.5444   21.0278 H    0  0  0  0  0  0  0  0  0  0  0  0
    8.4405   16.1612   21.6261 H    0  0  0  0  0  0  0  0  0  0  0  0
 19 20  1  0  0  0  0
 18 19  1  0  0  0  0
  7 18  2  0  0  0  0
  6  7  1  0  0  0  0
  5  6  2  0  0  0  0
  4  5  1  0  0  0  0
  3  4  2  0  0  0  0
  2  3  1  0  0  0  0
  1  2  1  0  0  0  0
 31  1  1  0  0  0  0
 32  1  1  0  0  0  0
 33  1  1  0  0  0  0
 34  5  1  0  0  0  0
  8  7  1  0  0  0  0
  9  8  1  0  0  0  0
 10  9  1  0  0  0  0
 35  9  1  0  0  0  0
 36  9  1  0  0  0  0
 11 10  1  0  0  0  0
 17 10  1  0  0  0  0
 37 10  1  0  0  0  0
 12 11  2  0  0  0  0
 13 12  1  0  0  0  0
 14 13  2  0  0  0  0
 15 14  1  0  0  0  0
 38 14  1  0  0  0  0
 16 15  1  0  0  0  0
 39 16  1  0  0  0  0
 40 16  1  0  0  0  0
 41 16  1  0  0  0  0
 42 17  1  0  0  0  0
 43 17  1  0  0  0  0
 44 19  1  0  0  0  0
 45 19  1  0  0  0  0
 21 20  2  0  0  0  0
 22 20  1  0  0  0  0
 23 22  1  0  0  0  0
 24 23  1  0  0  0  0
 46 23  1  0  0  0  0
 47 23  1  0  0  0  0
 25 24  1  0  0  0  0
 48 24  1  0  0  0  0
 49 24  1  0  0  0  0
 26 25  1  0  0  0  0
 50 25  1  0  0  0  0
 51 25  1  0  0  0  0
 27 26  1  0  0  0  0
 30 26  1  0  0  0  0
 52 26  1  0  0  0  0
 28 27  1  0  0  0  0
 29 27  2  0  0  0  0
 53 28  1  0  0  0  0
 54 28  1  0  0  0  0
 55 30  1  0  0  0  0
 56 30  1  0  0  0  0
 15 11  1  0  0  0  0
 17  8  1  0  0  0  0
 18  3  1  0  0  0  0
 30 22  1  0  0  0  0
M  END
>  <FittedScore>
-37.08

$$$$
