A71EV2A-x4237b_best-RMSD
  FITTED

 49 51     0  0  0  0  0  0  0999 V2000
    4.9435   11.2472   30.8164 F    0  0  0  0  0  0  0  0  0  0  0  0
    5.2059   11.6246   29.5501 C    0  0  0  0  0  0  0  0  0  0  0  0
    5.5549   12.9568   29.2778 C    0  0  0  0  0  0  0  0  0  0  0  0
    5.8512   13.3473   27.9599 C    0  0  0  0  0  0  0  0  0  0  0  0
    5.1463   10.6866   28.5072 C    0  0  0  0  0  0  0  0  0  0  0  0
    5.4467   11.0781   27.1906 C    0  0  0  0  0  0  0  0  0  0  0  0
    5.7987   12.4131   26.9022 C    0  0  0  0  0  0  0  0  0  0  0  0
    6.0352   12.8613   25.4539 C    0  0  0  0  0  0  0  0  0  0  0  0
    7.5094   13.0987   24.9895 C    0  0  0  0  0  0  0  0  0  0  0  0
    8.4932   11.9214   25.0733 C    0  0  0  0  0  0  0  0  0  0  0  0
    9.8493   12.1789   25.3593 C    0  0  0  0  0  0  0  0  0  0  0  0
   10.8118   11.1688   25.2311 C    0  0  0  0  0  0  0  0  0  0  0  0
   10.4264    9.8802   24.8397 C    0  0  0  0  0  0  0  0  0  0  0  0
    9.0755    9.5970   24.5912 C    0  0  0  0  0  0  0  0  0  0  0  0
    8.1173   10.6117   24.6990 C    0  0  0  0  0  0  0  0  0  0  0  0
    7.5649   13.6350   23.5295 C    0  0  0  0  0  0  0  0  0  0  0  0
    6.9734   12.9967   22.6711 O    0  0  0  0  0  0  0  0  0  0  0  0
    8.3419   14.7228   23.1580 N    0  0  0  0  0  0  0  0  0  0  0  0
    9.2277   15.5710   24.0291 C    0  0  0  0  0  0  0  0  0  0  0  0
   10.7168   15.5810   23.5758 C    0  0  0  0  0  0  0  0  0  0  0  0
   10.8647   15.9973   22.0885 C    0  0  0  0  0  0  0  0  0  0  0  0
    8.4386   15.2147   21.7349 C    0  0  0  0  0  0  0  0  0  0  0  0
    9.8986   15.1757   21.1845 C    0  0  0  0  0  0  0  0  0  0  0  0
    9.9940   15.6370   19.7263 C    0  0  0  0  0  0  0  0  0  0  0  0
    9.5725   16.7059   19.3127 O    0  0  0  0  0  0  0  0  0  0  0  0
   10.5328   14.7362   18.8787 N    0  0  0  0  0  0  0  0  0  0  0  0
    5.5896   13.6844   30.0885 H    0  0  0  0  0  0  0  0  0  0  0  0
    6.1133   14.3841   27.7601 H    0  0  0  0  0  0  0  0  0  0  0  0
    4.8803    9.6541   28.7192 H    0  0  0  0  0  0  0  0  0  0  0  0
    5.3973   10.3393   26.3939 H    0  0  0  0  0  0  0  0  0  0  0  0
    5.5422   12.1573   24.7773 H    0  0  0  0  0  0  0  0  0  0  0  0
    5.4860   13.7952   25.3016 H    0  0  0  0  0  0  0  0  0  0  0  0
    7.8349   13.8482   25.7009 H    0  0  0  0  0  0  0  0  0  0  0  0
   10.1786   13.1700   25.6583 H    0  0  0  0  0  0  0  0  0  0  0  0
   11.8560   11.3876   25.4391 H    0  0  0  0  0  0  0  0  0  0  0  0
   11.1739    9.0990   24.7370 H    0  0  0  0  0  0  0  0  0  0  0  0
    8.7721    8.5950   24.3007 H    0  0  0  0  0  0  0  0  0  0  0  0
    7.0874   10.3777   24.4484 H    0  0  0  0  0  0  0  0  0  0  0  0
    8.8452   16.5972   24.0195 H    0  0  0  0  0  0  0  0  0  0  0  0
    9.2187   15.2990   25.0784 H    0  0  0  0  0  0  0  0  0  0  0  0
   11.2885   16.2693   24.2027 H    0  0  0  0  0  0  0  0  0  0  0  0
   11.1503   14.5866   23.7190 H    0  0  0  0  0  0  0  0  0  0  0  0
   10.6639   17.0688   21.9830 H    0  0  0  0  0  0  0  0  0  0  0  0
   11.8987   15.8338   21.7653 H    0  0  0  0  0  0  0  0  0  0  0  0
    8.0512   16.2391   21.6848 H    0  0  0  0  0  0  0  0  0  0  0  0
    7.8058   14.6511   21.0426 H    0  0  0  0  0  0  0  0  0  0  0  0
   10.2148   14.1262   21.2595 H    0  0  0  0  0  0  0  0  0  0  0  0
   10.5680   14.9253   17.8840 H    0  0  0  0  0  0  0  0  0  0  0  0
   10.7509   13.7981   19.2088 H    0  0  0  0  0  0  0  0  0  0  0  0
  8  9  1  0  0  0  0
  7  8  1  0  0  0  0
  4  7  2  0  0  0  0
  3  4  1  0  0  0  0
  2  3  2  0  0  0  0
  1  2  1  0  0  0  0
 27  3  1  0  0  0  0
 28  4  1  0  0  0  0
  5  2  1  0  0  0  0
 29  5  1  0  0  0  0
  6  5  2  0  0  0  0
 30  6  1  0  0  0  0
 31  8  1  0  0  0  0
 32  8  1  0  0  0  0
 33  9  1  0  0  0  0
 10  9  1  0  0  0  0
 15 10  2  0  0  0  0
 11 10  1  0  0  0  0
 34 11  1  0  0  0  0
 12 11  2  0  0  0  0
 35 12  1  0  0  0  0
 13 12  1  0  0  0  0
 36 13  1  0  0  0  0
 14 13  2  0  0  0  0
 37 14  1  0  0  0  0
 38 15  1  0  0  0  0
 16  9  1  0  0  0  0
 17 16  2  0  0  0  0
 18 16  1  0  0  0  0
 19 18  1  0  0  0  0
 39 19  1  0  0  0  0
 40 19  1  0  0  0  0
 20 19  1  0  0  0  0
 41 20  1  0  0  0  0
 42 20  1  0  0  0  0
 21 20  1  0  0  0  0
 43 21  1  0  0  0  0
 44 21  1  0  0  0  0
 22 18  1  0  0  0  0
 45 22  1  0  0  0  0
 46 22  1  0  0  0  0
 23 21  1  0  0  0  0
 24 23  1  0  0  0  0
 47 23  1  0  0  0  0
 25 24  2  0  0  0  0
 26 24  1  0  0  0  0
 48 26  1  0  0  0  0
 49 26  1  0  0  0  0
  7  6  1  0  0  0  0
 15 14  1  0  0  0  0
 23 22  1  0  0  0  0
M  END
>  <FittedScore>
-39.24

$$$$
