A71EV2A-x4237b_lowest-energy
  FITTED

 49 51     0  0  0  0  0  0  0999 V2000
    4.8638    9.9861   30.2833 F    0  0  0  0  0  0  0  0  0  0  0  0
    5.1696   10.6286   29.1444 C    0  0  0  0  0  0  0  0  0  0  0  0
    5.2722    9.8929   27.9564 C    0  0  0  0  0  0  0  0  0  0  0  0
    5.6189   10.5432   26.7628 C    0  0  0  0  0  0  0  0  0  0  0  0
    5.4058   12.0143   29.1411 C    0  0  0  0  0  0  0  0  0  0  0  0
    5.7495   12.6628   27.9396 C    0  0  0  0  0  0  0  0  0  0  0  0
    5.8584   11.9330   26.7372 C    0  0  0  0  0  0  0  0  0  0  0  0
    6.1042   12.6498   25.4042 C    0  0  0  0  0  0  0  0  0  0  0  0
    7.5759   12.9160   24.9466 C    0  0  0  0  0  0  0  0  0  0  0  0
    8.5448   11.7238   24.9424 C    0  0  0  0  0  0  0  0  0  0  0  0
    9.8739   11.8977   25.3778 C    0  0  0  0  0  0  0  0  0  0  0  0
   10.8100   10.8656   25.2319 C    0  0  0  0  0  0  0  0  0  0  0  0
   10.4266    9.6386   24.6740 C    0  0  0  0  0  0  0  0  0  0  0  0
    9.1083    9.4450   24.2545 C    0  0  0  0  0  0  0  0  0  0  0  0
    8.1809   10.4826   24.3809 C    0  0  0  0  0  0  0  0  0  0  0  0
    7.6243   13.5573   23.5297 C    0  0  0  0  0  0  0  0  0  0  0  0
    6.9790   13.0138   22.6440 O    0  0  0  0  0  0  0  0  0  0  0  0
    8.4559   14.6214   23.2171 N    0  0  0  0  0  0  0  0  0  0  0  0
    9.3368   15.4140   24.1486 C    0  0  0  0  0  0  0  0  0  0  0  0
   10.8145   15.5724   23.6745 C    0  0  0  0  0  0  0  0  0  0  0  0
   10.9176   16.0917   22.2131 C    0  0  0  0  0  0  0  0  0  0  0  0
    8.5519   15.1978   21.8282 C    0  0  0  0  0  0  0  0  0  0  0  0
   10.0113   15.2439   21.2749 C    0  0  0  0  0  0  0  0  0  0  0  0
   10.0733   15.7234   19.8185 C    0  0  0  0  0  0  0  0  0  0  0  0
    9.6443   16.7985   19.4298 O    0  0  0  0  0  0  0  0  0  0  0  0
   10.5123   14.8032   18.9322 N    0  0  0  0  0  0  0  0  0  0  0  0
    5.0855    8.8199   27.9672 H    0  0  0  0  0  0  0  0  0  0  0  0
    5.6755    9.9587   25.8485 H    0  0  0  0  0  0  0  0  0  0  0  0
    5.3218   12.5833   30.0671 H    0  0  0  0  0  0  0  0  0  0  0  0
    5.9236   13.7366   27.9431 H    0  0  0  0  0  0  0  0  0  0  0  0
    5.5730   12.0933   24.6271 H    0  0  0  0  0  0  0  0  0  0  0  0
    5.5911   13.6154   25.4311 H    0  0  0  0  0  0  0  0  0  0  0  0
    7.9090   13.6105   25.7143 H    0  0  0  0  0  0  0  0  0  0  0  0
   10.2023   12.8339   25.8226 H    0  0  0  0  0  0  0  0  0  0  0  0
   11.8350   11.0189   25.5531 H    0  0  0  0  0  0  0  0  0  0  0  0
   11.1543    8.8389   24.5656 H    0  0  0  0  0  0  0  0  0  0  0  0
    8.8121    8.4976   23.8055 H    0  0  0  0  0  0  0  0  0  0  0  0
    7.1755   10.3228   23.9992 H    0  0  0  0  0  0  0  0  0  0  0  0
    8.8950   16.4074   24.2753 H    0  0  0  0  0  0  0  0  0  0  0  0
    9.3925   15.0078   25.1525 H    0  0  0  0  0  0  0  0  0  0  0  0
   11.3374   16.2654   24.3386 H    0  0  0  0  0  0  0  0  0  0  0  0
   11.3299   14.6109   23.7587 H    0  0  0  0  0  0  0  0  0  0  0  0
   10.6251   17.1463   22.1728 H    0  0  0  0  0  0  0  0  0  0  0  0
   11.9572   16.0387   21.8767 H    0  0  0  0  0  0  0  0  0  0  0  0
    8.1272   16.2086   21.8350 H    0  0  0  0  0  0  0  0  0  0  0  0
    7.9514   14.6492   21.0987 H    0  0  0  0  0  0  0  0  0  0  0  0
   10.3884   14.2130   21.3266 H    0  0  0  0  0  0  0  0  0  0  0  0
   10.4656   15.0065   17.9409 H    0  0  0  0  0  0  0  0  0  0  0  0
   10.7226   13.8524   19.2389 H    0  0  0  0  0  0  0  0  0  0  0  0
  8  9  1  0  0  0  0
  7  8  1  0  0  0  0
  4  7  2  0  0  0  0
  3  4  1  0  0  0  0
  2  3  2  0  0  0  0
  1  2  1  0  0  0  0
 27  3  1  0  0  0  0
 28  4  1  0  0  0  0
  5  2  1  0  0  0  0
 29  5  1  0  0  0  0
  6  5  2  0  0  0  0
 30  6  1  0  0  0  0
 31  8  1  0  0  0  0
 32  8  1  0  0  0  0
 33  9  1  0  0  0  0
 10  9  1  0  0  0  0
 15 10  2  0  0  0  0
 11 10  1  0  0  0  0
 34 11  1  0  0  0  0
 12 11  2  0  0  0  0
 35 12  1  0  0  0  0
 13 12  1  0  0  0  0
 36 13  1  0  0  0  0
 14 13  2  0  0  0  0
 37 14  1  0  0  0  0
 38 15  1  0  0  0  0
 16  9  1  0  0  0  0
 17 16  2  0  0  0  0
 18 16  1  0  0  0  0
 19 18  1  0  0  0  0
 39 19  1  0  0  0  0
 40 19  1  0  0  0  0
 20 19  1  0  0  0  0
 41 20  1  0  0  0  0
 42 20  1  0  0  0  0
 21 20  1  0  0  0  0
 43 21  1  0  0  0  0
 44 21  1  0  0  0  0
 22 18  1  0  0  0  0
 45 22  1  0  0  0  0
 46 22  1  0  0  0  0
 23 21  1  0  0  0  0
 24 23  1  0  0  0  0
 47 23  1  0  0  0  0
 25 24  2  0  0  0  0
 26 24  1  0  0  0  0
 48 26  1  0  0  0  0
 49 26  1  0  0  0  0
  7  6  1  0  0  0  0
 15 14  1  0  0  0  0
 23 22  1  0  0  0  0
M  END
>  <FittedScore>
-40.38

$$$$
