A71EV2A-x3557a_lowest-energy
  FITTED

 44 45     0  0  0  0  0  0  0999 V2000
    9.7940   16.7817   19.2325 O    0  0  0  0  0  0  0  0  0  0  0  0
   10.2733   15.7219   19.5948 C    0  0  0  0  0  0  0  0  0  0  0  0
   10.6270   14.7715   18.7102 N    0  0  0  0  0  0  0  0  0  0  0  0
   10.3985   15.2836   21.0484 C    0  0  0  0  0  0  0  0  0  0  0  0
   11.3578   16.2122   21.8407 C    0  0  0  0  0  0  0  0  0  0  0  0
   11.4841   15.7144   23.3005 C    0  0  0  0  0  0  0  0  0  0  0  0
   10.0967   15.4710   23.9583 C    0  0  0  0  0  0  0  0  0  0  0  0
    9.0145   15.1642   21.7529 C    0  0  0  0  0  0  0  0  0  0  0  0
    9.1466   14.6198   23.1446 N    0  0  0  0  0  0  0  0  0  0  0  0
    8.4091   13.5407   23.5899 C    0  0  0  0  0  0  0  0  0  0  0  0
    7.5304   13.0443   22.8958 O    0  0  0  0  0  0  0  0  0  0  0  0
    8.7361   12.9412   24.9643 C    0  0  0  0  0  0  0  0  0  0  0  0
    7.7330   11.8850   25.4176 C    0  0  0  0  0  0  0  0  0  0  0  0
    6.5841   12.3359   26.0917 C    0  0  0  0  0  0  0  0  0  0  0  0
    5.5938   11.4409   26.4835 C    0  0  0  0  0  0  0  0  0  0  0  0
    7.8840   10.5135   25.1110 C    0  0  0  0  0  0  0  0  0  0  0  0
    9.0121   10.1081   24.3908 O    0  0  0  0  0  0  0  0  0  0  0  0
    9.1103    8.8982   23.6044 C    0  0  0  0  0  0  0  0  0  0  0  0
    6.8843    9.6118   25.5386 C    0  0  0  0  0  0  0  0  0  0  0  0
    5.7415   10.0691   26.2163 C    0  0  0  0  0  0  0  0  0  0  0  0
    4.7819    9.1332   26.5625 O    0  0  0  0  0  0  0  0  0  0  0  0
    3.7732    9.3169   27.5864 C    0  0  0  0  0  0  0  0  0  0  0  0
   10.8431   13.8276   19.0266 H    0  0  0  0  0  0  0  0  0  0  0  0
   10.6268   14.9785   17.7232 H    0  0  0  0  0  0  0  0  0  0  0  0
   10.8447   14.2791   21.0864 H    0  0  0  0  0  0  0  0  0  0  0  0
   12.3440   16.2215   21.3690 H    0  0  0  0  0  0  0  0  0  0  0  0
   10.9874   17.2421   21.8286 H    0  0  0  0  0  0  0  0  0  0  0  0
   12.0651   14.7874   23.3219 H    0  0  0  0  0  0  0  0  0  0  0  0
   12.0436   16.4540   23.8799 H    0  0  0  0  0  0  0  0  0  0  0  0
   10.3117   15.0651   24.9447 H    0  0  0  0  0  0  0  0  0  0  0  0
    9.6131   16.4342   24.1502 H    0  0  0  0  0  0  0  0  0  0  0  0
    8.3752   14.5393   21.1229 H    0  0  0  0  0  0  0  0  0  0  0  0
    8.5210   16.1396   21.7948 H    0  0  0  0  0  0  0  0  0  0  0  0
    9.7514   12.5347   24.9596 H    0  0  0  0  0  0  0  0  0  0  0  0
    8.7371   13.7253   25.7245 H    0  0  0  0  0  0  0  0  0  0  0  0
    6.4413   13.3954   26.3000 H    0  0  0  0  0  0  0  0  0  0  0  0
    4.7148   11.8344   26.9838 H    0  0  0  0  0  0  0  0  0  0  0  0
    8.2927    8.8476   22.8819 H    0  0  0  0  0  0  0  0  0  0  0  0
    9.0821    8.0223   24.2530 H    0  0  0  0  0  0  0  0  0  0  0  0
   10.0588    8.8991   23.0666 H    0  0  0  0  0  0  0  0  0  0  0  0
    6.9761    8.5494   25.3344 H    0  0  0  0  0  0  0  0  0  0  0  0
    3.2204    8.3840   27.7055 H    0  0  0  0  0  0  0  0  0  0  0  0
    3.0709   10.0999   27.2898 H    0  0  0  0  0  0  0  0  0  0  0  0
    4.2382    9.5758   28.5412 H    0  0  0  0  0  0  0  0  0  0  0  0
  9 10  1  0  0  0  0
  7  9  1  0  0  0  0
  6  7  1  0  0  0  0
  5  6  1  0  0  0  0
  4  5  1  0  0  0  0
  2  4  1  0  0  0  0
  1  2  2  0  0  0  0
  3  2  1  0  0  0  0
 23  3  1  0  0  0  0
 24  3  1  0  0  0  0
 25  4  1  0  0  0  0
 26  5  1  0  0  0  0
 27  5  1  0  0  0  0
 28  6  1  0  0  0  0
 29  6  1  0  0  0  0
 30  7  1  0  0  0  0
 31  7  1  0  0  0  0
  8  4  1  0  0  0  0
 32  8  1  0  0  0  0
 33  8  1  0  0  0  0
 11 10  2  0  0  0  0
 12 10  1  0  0  0  0
 34 12  1  0  0  0  0
 35 12  1  0  0  0  0
 13 12  1  0  0  0  0
 14 13  1  0  0  0  0
 36 14  1  0  0  0  0
 15 14  2  0  0  0  0
 37 15  1  0  0  0  0
 16 13  2  0  0  0  0
 17 16  1  0  0  0  0
 18 17  1  0  0  0  0
 38 18  1  0  0  0  0
 39 18  1  0  0  0  0
 40 18  1  0  0  0  0
 19 16  1  0  0  0  0
 41 19  1  0  0  0  0
 20 15  1  0  0  0  0
 21 20  1  0  0  0  0
 22 21  1  0  0  0  0
 42 22  1  0  0  0  0
 43 22  1  0  0  0  0
 44 22  1  0  0  0  0
  9  8  1  0  0  0  0
 20 19  2  0  0  0  0
M  END
>  <FittedScore>
-32.33

$$$$
