A71EV2A-x4847a_best-RMSD
  FITTED

 37 39     0  0  0  0  0  0  0999 V2000
   11.0017   14.7232   25.1153 O    0  0  0  0  0  0  0  0  0  0  0  0
   10.8720   15.0534   23.9534 C    0  0  0  0  0  0  0  0  0  0  0  0
   12.0821   15.6497   23.2125 C    0  0  0  0  0  0  0  0  0  0  0  0
   11.8195   16.1493   21.7687 C    0  0  0  0  0  0  0  0  0  0  0  0
    9.6879   14.8507   23.2828 N    0  0  0  0  0  0  0  0  0  0  0  0
    9.4979   15.1413   21.8370 C    0  0  0  0  0  0  0  0  0  0  0  0
   10.8306   15.1999   21.0506 C    0  0  0  0  0  0  0  0  0  0  0  0
   10.5929   15.5972   19.6030 C    0  0  0  0  0  0  0  0  0  0  0  0
   10.0183   16.6173   19.2727 O    0  0  0  0  0  0  0  0  0  0  0  0
   10.7987   14.6132   18.7116 N    0  0  0  0  0  0  0  0  0  0  0  0
    8.4807   14.2601   23.9229 C    0  0  0  0  0  0  0  0  0  0  0  0
    8.5339   12.7324   24.0589 C    0  0  0  0  0  0  0  0  0  0  0  0
    7.6295   12.0935   24.9236 C    0  0  0  0  0  0  0  0  0  0  0  0
    6.5721   12.6382   25.8140 C    0  0  0  0  0  0  0  0  0  0  0  0
    6.0455   11.5561   26.3757 C    0  0  0  0  0  0  0  0  0  0  0  0
    6.6402   10.4094   25.9639 N    0  0  0  0  0  0  0  0  0  0  0  0
    7.6017   10.7140   25.0542 C    0  0  0  0  0  0  0  0  0  0  0  0
    8.4612    9.8896   24.3261 C    0  0  0  0  0  0  0  0  0  0  0  0
    9.3989   10.4978   23.4778 C    0  0  0  0  0  0  0  0  0  0  0  0
    9.4350   11.9000   23.3398 C    0  0  0  0  0  0  0  0  0  0  0  0
   12.4746   16.4834   23.8002 H    0  0  0  0  0  0  0  0  0  0  0  0
   12.8765   14.8960   23.1786 H    0  0  0  0  0  0  0  0  0  0  0  0
   11.4102   17.1650   21.7991 H    0  0  0  0  0  0  0  0  0  0  0  0
   12.7608   16.2056   21.2117 H    0  0  0  0  0  0  0  0  0  0  0  0
    8.9647   16.0937   21.7492 H    0  0  0  0  0  0  0  0  0  0  0  0
    8.8642   14.3782   21.3693 H    0  0  0  0  0  0  0  0  0  0  0  0
   11.2713   14.1931   21.0776 H    0  0  0  0  0  0  0  0  0  0  0  0
   11.0397   13.6709   19.0133 H    0  0  0  0  0  0  0  0  0  0  0  0
   10.6586   14.7891   17.7286 H    0  0  0  0  0  0  0  0  0  0  0  0
    7.5669   14.5382   23.3906 H    0  0  0  0  0  0  0  0  0  0  0  0
    8.3704   14.7146   24.9117 H    0  0  0  0  0  0  0  0  0  0  0  0
    6.2646   13.6662   25.9892 H    0  0  0  0  0  0  0  0  0  0  0  0
    5.2307   11.5301   27.0921 H    0  0  0  0  0  0  0  0  0  0  0  0
    6.3096    9.4555   26.1109 H    0  0  0  0  0  0  0  0  0  0  0  0
    8.4204    8.8081   24.4243 H    0  0  0  0  0  0  0  0  0  0  0  0
   10.0973    9.8886   22.9094 H    0  0  0  0  0  0  0  0  0  0  0  0
   10.1709   12.3157   22.6582 H    0  0  0  0  0  0  0  0  0  0  0  0
  2  5  1  0  0  0  0
  3  2  1  0  0  0  0
 21  3  1  0  0  0  0
  1  2  2  0  0  0  0
 22  3  1  0  0  0  0
  4  3  1  0  0  0  0
 23  4  1  0  0  0  0
 24  4  1  0  0  0  0
  6  5  1  0  0  0  0
 25  6  1  0  0  0  0
 26  6  1  0  0  0  0
  7  4  1  0  0  0  0
  8  7  1  0  0  0  0
 27  7  1  0  0  0  0
  9  8  2  0  0  0  0
 10  8  1  0  0  0  0
 28 10  1  0  0  0  0
 29 10  1  0  0  0  0
 11  5  1  0  0  0  0
 30 11  1  0  0  0  0
 31 11  1  0  0  0  0
 12 11  1  0  0  0  0
 20 12  1  0  0  0  0
 13 12  2  0  0  0  0
 14 13  1  0  0  0  0
 32 14  1  0  0  0  0
 15 14  2  0  0  0  0
 33 15  1  0  0  0  0
 16 15  1  0  0  0  0
 34 16  1  0  0  0  0
 17 16  1  0  0  0  0
 18 17  2  0  0  0  0
 35 18  1  0  0  0  0
 19 18  1  0  0  0  0
 36 19  1  0  0  0  0
 37 20  1  0  0  0  0
  7  6  1  0  0  0  0
 17 13  1  0  0  0  0
 20 19  2  0  0  0  0
M  END
>  <FittedScore>
-36.22

$$$$
