A71EV2A-x3849a_best-RMSD
  FITTED

 39 40     0  0  0  0  0  0  0999 V2000
    9.5395   16.9421   19.2986 O    0  0  0  0  0  0  0  0  0  0  0  0
   10.0986   15.9758   19.7815 C    0  0  0  0  0  0  0  0  0  0  0  0
   10.5724   14.9725   19.0081 N    0  0  0  0  0  0  0  0  0  0  0  0
   10.1389   15.7585   21.2932 C    0  0  0  0  0  0  0  0  0  0  0  0
   11.5967   15.8705   21.8090 C    0  0  0  0  0  0  0  0  0  0  0  0
   11.6480   15.5704   23.3125 C    0  0  0  0  0  0  0  0  0  0  0  0
   10.9814   14.2102   23.6417 C    0  0  0  0  0  0  0  0  0  0  0  0
    9.3999   14.4575   21.7252 C    0  0  0  0  0  0  0  0  0  0  0  0
    9.5688   14.0187   23.1392 N    0  0  0  0  0  0  0  0  0  0  0  0
    8.5864   13.2655   23.7495 C    0  0  0  0  0  0  0  0  0  0  0  0
    7.5355   12.9938   23.1759 O    0  0  0  0  0  0  0  0  0  0  0  0
    8.8382   12.7116   25.1566 C    0  0  0  0  0  0  0  0  0  0  0  0
    7.9463   11.5304   25.5181 C    0  0  0  0  0  0  0  0  0  0  0  0
    8.1815   10.2424   24.9756 C    0  0  0  0  0  0  0  0  0  0  0  0
    9.2728   10.0558   24.1273 O    0  0  0  0  0  0  0  0  0  0  0  0
    9.5593    8.8214   23.4159 C    0  0  0  0  0  0  0  0  0  0  0  0
    6.8440   11.7229   26.3723 C    0  0  0  0  0  0  0  0  0  0  0  0
    6.0163   10.6394   26.6834 C    0  0  0  0  0  0  0  0  0  0  0  0
    6.3033    9.3937   26.1197 C    0  0  0  0  0  0  0  0  0  0  0  0
    7.3554    9.2027   25.2780 N    0  0  0  0  0  0  0  0  0  0  0  0
   10.6443   15.0735   18.0025 H    0  0  0  0  0  0  0  0  0  0  0  0
   10.8062   14.0813   19.4423 H    0  0  0  0  0  0  0  0  0  0  0  0
    9.5802   16.5755   21.7685 H    0  0  0  0  0  0  0  0  0  0  0  0
   12.2411   15.1681   21.2774 H    0  0  0  0  0  0  0  0  0  0  0  0
   11.9775   16.8782   21.6130 H    0  0  0  0  0  0  0  0  0  0  0  0
   12.6938   15.5527   23.6315 H    0  0  0  0  0  0  0  0  0  0  0  0
   11.1540   16.3740   23.8661 H    0  0  0  0  0  0  0  0  0  0  0  0
   11.5996   13.3965   23.2469 H    0  0  0  0  0  0  0  0  0  0  0  0
   11.0405   14.1385   24.7271 H    0  0  0  0  0  0  0  0  0  0  0  0
    9.7135   13.6107   21.1168 H    0  0  0  0  0  0  0  0  0  0  0  0
    8.3453   14.6176   21.4819 H    0  0  0  0  0  0  0  0  0  0  0  0
    9.8627   12.3531   25.2762 H    0  0  0  0  0  0  0  0  0  0  0  0
    8.7236   13.5214   25.8845 H    0  0  0  0  0  0  0  0  0  0  0  0
   10.4511    8.9605   22.8034 H    0  0  0  0  0  0  0  0  0  0  0  0
    8.7238    8.5515   22.7686 H    0  0  0  0  0  0  0  0  0  0  0  0
    9.7497    8.0074   24.1211 H    0  0  0  0  0  0  0  0  0  0  0  0
    6.6215   12.7026   26.7874 H    0  0  0  0  0  0  0  0  0  0  0  0
    5.1673   10.7640   27.3465 H    0  0  0  0  0  0  0  0  0  0  0  0
    5.6718    8.5424   26.3592 H    0  0  0  0  0  0  0  0  0  0  0  0
  9 10  1  0  0  0  0
  7  9  1  0  0  0  0
  6  7  1  0  0  0  0
  5  6  1  0  0  0  0
  4  5  1  0  0  0  0
  2  4  1  0  0  0  0
  1  2  2  0  0  0  0
  3  2  1  0  0  0  0
 21  3  1  0  0  0  0
 22  3  1  0  0  0  0
 23  4  1  0  0  0  0
 24  5  1  0  0  0  0
 25  5  1  0  0  0  0
 26  6  1  0  0  0  0
 27  6  1  0  0  0  0
 28  7  1  0  0  0  0
 29  7  1  0  0  0  0
  8  4  1  0  0  0  0
 30  8  1  0  0  0  0
 31  8  1  0  0  0  0
 11 10  2  0  0  0  0
 12 10  1  0  0  0  0
 32 12  1  0  0  0  0
 33 12  1  0  0  0  0
 13 12  1  0  0  0  0
 14 13  1  0  0  0  0
 20 14  2  0  0  0  0
 15 14  1  0  0  0  0
 16 15  1  0  0  0  0
 34 16  1  0  0  0  0
 35 16  1  0  0  0  0
 36 16  1  0  0  0  0
 17 13  2  0  0  0  0
 37 17  1  0  0  0  0
 18 17  1  0  0  0  0
 38 18  1  0  0  0  0
 19 18  2  0  0  0  0
 39 19  1  0  0  0  0
  9  8  1  0  0  0  0
 20 19  1  0  0  0  0
M  END
>  <FittedScore>
-34.61

$$$$
