A71EV2A-x3849a_lowest-energy
  FITTED

 39 40     0  0  0  0  0  0  0999 V2000
    9.5390   16.8178   19.2105 O    0  0  0  0  0  0  0  0  0  0  0  0
   10.0916   15.8665   19.7304 C    0  0  0  0  0  0  0  0  0  0  0  0
   10.5702   14.8329   18.9936 N    0  0  0  0  0  0  0  0  0  0  0  0
   10.1488   15.7169   21.2464 C    0  0  0  0  0  0  0  0  0  0  0  0
   11.6057   15.7896   21.7712 C    0  0  0  0  0  0  0  0  0  0  0  0
   11.6155   15.6238   23.2994 C    0  0  0  0  0  0  0  0  0  0  0  0
   10.9061   14.3195   23.7338 C    0  0  0  0  0  0  0  0  0  0  0  0
    9.3915   14.4432   21.7294 C    0  0  0  0  0  0  0  0  0  0  0  0
    9.5314   14.0588   23.1669 N    0  0  0  0  0  0  0  0  0  0  0  0
    8.5532   13.2974   23.7815 C    0  0  0  0  0  0  0  0  0  0  0  0
    7.5218   12.9958   23.1935 O    0  0  0  0  0  0  0  0  0  0  0  0
    8.8065   12.7580   25.1973 C    0  0  0  0  0  0  0  0  0  0  0  0
    7.9052   11.5858   25.5869 C    0  0  0  0  0  0  0  0  0  0  0  0
    8.1070   10.2967   25.0342 C    0  0  0  0  0  0  0  0  0  0  0  0
    9.1463   10.1256   24.1300 O    0  0  0  0  0  0  0  0  0  0  0  0
    9.4952    8.8565   23.5325 C    0  0  0  0  0  0  0  0  0  0  0  0
    6.8481   11.7810   26.4958 C    0  0  0  0  0  0  0  0  0  0  0  0
    6.0093   10.7068   26.8106 C    0  0  0  0  0  0  0  0  0  0  0  0
    6.2513    9.4617   26.2184 C    0  0  0  0  0  0  0  0  0  0  0  0
    7.2829    9.2546   25.3565 N    0  0  0  0  0  0  0  0  0  0  0  0
   10.5144   14.8757   17.9801 H    0  0  0  0  0  0  0  0  0  0  0  0
   10.8511   13.9617   19.4521 H    0  0  0  0  0  0  0  0  0  0  0  0
    9.6148   16.5697   21.6763 H    0  0  0  0  0  0  0  0  0  0  0  0
   12.2237   15.0058   21.3245 H    0  0  0  0  0  0  0  0  0  0  0  0
   12.0535   16.7484   21.5058 H    0  0  0  0  0  0  0  0  0  0  0  0
   12.6505   15.6042   23.6575 H    0  0  0  0  0  0  0  0  0  0  0  0
   11.1291   16.4809   23.7747 H    0  0  0  0  0  0  0  0  0  0  0  0
   11.5463   13.4610   23.4974 H    0  0  0  0  0  0  0  0  0  0  0  0
   10.8693   14.3994   24.8230 H    0  0  0  0  0  0  0  0  0  0  0  0
    9.6946   13.5605   21.1571 H    0  0  0  0  0  0  0  0  0  0  0  0
    8.3400   14.6043   21.4667 H    0  0  0  0  0  0  0  0  0  0  0  0
    9.8350   12.4022   25.3153 H    0  0  0  0  0  0  0  0  0  0  0  0
    8.6978   13.5783   25.9113 H    0  0  0  0  0  0  0  0  0  0  0  0
   10.3127    9.0201   22.8253 H    0  0  0  0  0  0  0  0  0  0  0  0
    8.6424    8.4203   23.0086 H    0  0  0  0  0  0  0  0  0  0  0  0
    9.8369    8.1658   24.3041 H    0  0  0  0  0  0  0  0  0  0  0  0
    6.6857   12.7488   26.9572 H    0  0  0  0  0  0  0  0  0  0  0  0
    5.1737   10.8394   27.4853 H    0  0  0  0  0  0  0  0  0  0  0  0
    5.6043    8.6213   26.4586 H    0  0  0  0  0  0  0  0  0  0  0  0
  9 10  1  0  0  0  0
  7  9  1  0  0  0  0
  6  7  1  0  0  0  0
  5  6  1  0  0  0  0
  4  5  1  0  0  0  0
  2  4  1  0  0  0  0
  1  2  2  0  0  0  0
  3  2  1  0  0  0  0
 21  3  1  0  0  0  0
 22  3  1  0  0  0  0
 23  4  1  0  0  0  0
 24  5  1  0  0  0  0
 25  5  1  0  0  0  0
 26  6  1  0  0  0  0
 27  6  1  0  0  0  0
 28  7  1  0  0  0  0
 29  7  1  0  0  0  0
  8  4  1  0  0  0  0
 30  8  1  0  0  0  0
 31  8  1  0  0  0  0
 11 10  2  0  0  0  0
 12 10  1  0  0  0  0
 32 12  1  0  0  0  0
 33 12  1  0  0  0  0
 13 12  1  0  0  0  0
 14 13  1  0  0  0  0
 20 14  2  0  0  0  0
 15 14  1  0  0  0  0
 16 15  1  0  0  0  0
 34 16  1  0  0  0  0
 35 16  1  0  0  0  0
 36 16  1  0  0  0  0
 17 13  2  0  0  0  0
 37 17  1  0  0  0  0
 18 17  1  0  0  0  0
 38 18  1  0  0  0  0
 19 18  2  0  0  0  0
 39 19  1  0  0  0  0
  9  8  1  0  0  0  0
 20 19  1  0  0  0  0
M  END
>  <FittedScore>
-34.63

$$$$
