A71EV2A-x4203a_best-RMSD
  FITTED

 40 41     0  0  0  0  0  0  0999 V2000
    9.8214   16.6916   19.2482 O    0  0  0  0  0  0  0  0  0  0  0  0
   10.4124   15.6893   19.6135 C    0  0  0  0  0  0  0  0  0  0  0  0
   10.7761   14.7453   18.7248 N    0  0  0  0  0  0  0  0  0  0  0  0
   10.5813   15.2641   21.0698 C    0  0  0  0  0  0  0  0  0  0  0  0
   11.5172   16.2307   21.8441 C    0  0  0  0  0  0  0  0  0  0  0  0
   11.6797   15.7547   23.3096 C    0  0  0  0  0  0  0  0  0  0  0  0
   10.3191   15.4416   23.9965 C    0  0  0  0  0  0  0  0  0  0  0  0
    9.2203   15.0987   21.8123 C    0  0  0  0  0  0  0  0  0  0  0  0
    9.3906   14.5540   23.2006 N    0  0  0  0  0  0  0  0  0  0  0  0
    8.6969   13.4512   23.6651 C    0  0  0  0  0  0  0  0  0  0  0  0
    7.9040   12.8553   22.9491 O    0  0  0  0  0  0  0  0  0  0  0  0
    8.9426   12.9452   25.0954 C    0  0  0  0  0  0  0  0  0  0  0  0
    7.9271   11.8892   25.5555 C    0  0  0  0  0  0  0  0  0  0  0  0
    8.0492   10.5201   25.2043 C    0  0  0  0  0  0  0  0  0  0  0  0
    9.1450   10.1345   24.4316 O    0  0  0  0  0  0  0  0  0  0  0  0
    9.2875    8.8904   23.7150 C    0  0  0  0  0  0  0  0  0  0  0  0
    6.8040   12.3258   26.2827 C    0  0  0  0  0  0  0  0  0  0  0  0
    5.8255   11.4170   26.6980 C    0  0  0  0  0  0  0  0  0  0  0  0
    5.9656   10.0601   26.3910 C    0  0  0  0  0  0  0  0  0  0  0  0
    4.7722    8.9485   26.9591 CL   0  0  0  0  0  0  0  0  0  0  0  0
    7.0650    9.6080   25.6406 C    0  0  0  0  0  0  0  0  0  0  0  0
   10.6716   14.9197   17.7366 H    0  0  0  0  0  0  0  0  0  0  0  0
   11.0215   13.8050   19.0359 H    0  0  0  0  0  0  0  0  0  0  0  0
   11.0641   14.2771   21.0992 H    0  0  0  0  0  0  0  0  0  0  0  0
   12.4977   16.2683   21.3599 H    0  0  0  0  0  0  0  0  0  0  0  0
   11.1182   17.2497   21.8251 H    0  0  0  0  0  0  0  0  0  0  0  0
   12.3102   14.8604   23.3323 H    0  0  0  0  0  0  0  0  0  0  0  0
   12.2091   16.5259   23.8770 H    0  0  0  0  0  0  0  0  0  0  0  0
   10.5786   15.0254   24.9673 H    0  0  0  0  0  0  0  0  0  0  0  0
    9.7969   16.3782   24.2118 H    0  0  0  0  0  0  0  0  0  0  0  0
    8.5780   14.4651   21.1943 H    0  0  0  0  0  0  0  0  0  0  0  0
    8.7038   16.0615   21.8671 H    0  0  0  0  0  0  0  0  0  0  0  0
    9.9606   12.5503   25.1663 H    0  0  0  0  0  0  0  0  0  0  0  0
    8.9028   13.7751   25.8065 H    0  0  0  0  0  0  0  0  0  0  0  0
    9.3442    8.0584   24.4212 H    0  0  0  0  0  0  0  0  0  0  0  0
   10.2291    8.9270   23.1643 H    0  0  0  0  0  0  0  0  0  0  0  0
    8.4584    8.7452   23.0176 H    0  0  0  0  0  0  0  0  0  0  0  0
    6.6738   13.3802   26.5201 H    0  0  0  0  0  0  0  0  0  0  0  0
    4.9591   11.7758   27.2509 H    0  0  0  0  0  0  0  0  0  0  0  0
    7.1424    8.5505   25.4049 H    0  0  0  0  0  0  0  0  0  0  0  0
  9 10  1  0  0  0  0
  7  9  1  0  0  0  0
  6  7  1  0  0  0  0
  5  6  1  0  0  0  0
  4  5  1  0  0  0  0
  2  4  1  0  0  0  0
  1  2  2  0  0  0  0
  3  2  1  0  0  0  0
 22  3  1  0  0  0  0
 23  3  1  0  0  0  0
 24  4  1  0  0  0  0
 25  5  1  0  0  0  0
 26  5  1  0  0  0  0
 27  6  1  0  0  0  0
 28  6  1  0  0  0  0
 29  7  1  0  0  0  0
 30  7  1  0  0  0  0
  8  4  1  0  0  0  0
 31  8  1  0  0  0  0
 32  8  1  0  0  0  0
 11 10  2  0  0  0  0
 12 10  1  0  0  0  0
 33 12  1  0  0  0  0
 34 12  1  0  0  0  0
 13 12  1  0  0  0  0
 14 13  1  0  0  0  0
 21 14  2  0  0  0  0
 15 14  1  0  0  0  0
 16 15  1  0  0  0  0
 35 16  1  0  0  0  0
 36 16  1  0  0  0  0
 37 16  1  0  0  0  0
 17 13  2  0  0  0  0
 38 17  1  0  0  0  0
 18 17  1  0  0  0  0
 39 18  1  0  0  0  0
 19 18  2  0  0  0  0
 20 19  1  0  0  0  0
 40 21  1  0  0  0  0
  9  8  1  0  0  0  0
 21 19  1  0  0  0  0
M  END
>  <FittedScore>
-31.06

$$$$
