A71EV2A-x7515a_best-RMSD
  FITTED

 44 47     0  0  0  0  0  0  0999 V2000
    9.0409    8.6447   23.4414 C    0  0  0  0  0  0  0  0  0  0  0  0
    9.1234   10.4182   23.8230 S    0  0  0  0  0  0  0  0  0  0  0  0
    7.7981   10.8233   24.9806 C    0  0  0  0  0  0  0  0  0  0  0  0
    7.0340    9.8216   25.6089 C    0  0  0  0  0  0  0  0  0  0  0  0
    6.0067   10.1509   26.5029 C    0  0  0  0  0  0  0  0  0  0  0  0
    5.6601   11.4848   26.7253 C    0  0  0  0  0  0  0  0  0  0  0  0
    4.5604   11.7660   27.4837 N    0  0  0  0  0  0  0  0  0  0  0  0
    4.1489   13.0531   27.6208 C    0  0  0  0  0  0  0  0  0  0  0  0
    4.8763   14.1186   27.0801 C    0  0  0  0  0  0  0  0  0  0  0  0
    6.0607   13.8542   26.3740 C    0  0  0  0  0  0  0  0  0  0  0  0
    6.4395   12.5140   26.1413 C    0  0  0  0  0  0  0  0  0  0  0  0
    7.5251   12.1685   25.2971 C    0  0  0  0  0  0  0  0  0  0  0  0
    8.3062   13.1808   24.7350 O    0  0  0  0  0  0  0  0  0  0  0  0
    8.1453   13.6152   23.4595 C    0  0  0  0  0  0  0  0  0  0  0  0
    7.3853   13.0653   22.6753 O    0  0  0  0  0  0  0  0  0  0  0  0
    8.8997   14.6867   23.0728 N    0  0  0  0  0  0  0  0  0  0  0  0
    8.8799   15.2515   21.7032 C    0  0  0  0  0  0  0  0  0  0  0  0
   10.2376   14.9581   20.9984 C    0  0  0  0  0  0  0  0  0  0  0  0
   10.4926   15.7102   19.7165 C    0  0  0  0  0  0  0  0  0  0  0  0
   11.3431   15.1616   18.8401 N    0  0  0  0  0  0  0  0  0  0  0  0
    9.8560   16.7018   19.4126 O    0  0  0  0  0  0  0  0  0  0  0  0
   11.5067   15.0048   21.9146 C    0  0  0  0  0  0  0  0  0  0  0  0
   11.1849   15.7041   23.2254 C    0  0  0  0  0  0  0  0  0  0  0  0
   11.3424   14.9834   24.5226 C    0  0  0  0  0  0  0  0  0  0  0  0
    9.9639   15.2434   23.9801 C    0  0  0  0  0  0  0  0  0  0  0  0
    9.3504    8.0755   24.3078 H    0  0  0  0  0  0  0  0  0  0  0  0
    9.7403    8.4183   22.6303 H    0  0  0  0  0  0  0  0  0  0  0  0
    8.0160    8.3545   23.1682 H    0  0  0  0  0  0  0  0  0  0  0  0
    7.2532    8.7776   25.4555 H    0  0  0  0  0  0  0  0  0  0  0  0
    5.4816    9.3586   27.0332 H    0  0  0  0  0  0  0  0  0  0  0  0
    3.2112   13.2436   28.1403 H    0  0  0  0  0  0  0  0  0  0  0  0
    4.4981   15.1340   27.1573 H    0  0  0  0  0  0  0  0  0  0  0  0
    6.6179   14.6793   25.9362 H    0  0  0  0  0  0  0  0  0  0  0  0
    8.7264   16.3323   21.7897 H    0  0  0  0  0  0  0  0  0  0  0  0
    8.0385   14.8870   21.1024 H    0  0  0  0  0  0  0  0  0  0  0  0
   10.1150   13.9182   20.7042 H    0  0  0  0  0  0  0  0  0  0  0  0
   11.8104   14.2995   19.0873 H    0  0  0  0  0  0  0  0  0  0  0  0
   11.6624   15.7072   18.0386 H    0  0  0  0  0  0  0  0  0  0  0  0
   12.3620   15.4899   21.4411 H    0  0  0  0  0  0  0  0  0  0  0  0
   11.8114   13.9651   22.0742 H    0  0  0  0  0  0  0  0  0  0  0  0
   11.3421   16.7832   23.1857 H    0  0  0  0  0  0  0  0  0  0  0  0
   11.7068   15.5924   25.3446 H    0  0  0  0  0  0  0  0  0  0  0  0
   11.7118   13.9604   24.5069 H    0  0  0  0  0  0  0  0  0  0  0  0
    9.2694   15.9950   24.3381 H    0  0  0  0  0  0  0  0  0  0  0  0
 13 14  1  0  0  0  0
 12 13  1  0  0  0  0
 11 12  2  0  0  0  0
 10 11  1  0  0  0  0
  9 10  2  0  0  0  0
  8  9  1  0  0  0  0
  7  8  2  0  0  0  0
  6  7  1  0  0  0  0
  5  6  2  0  0  0  0
  4  5  1  0  0  0  0
  3  4  2  0  0  0  0
  2  3  1  0  0  0  0
  1  2  1  0  0  0  0
 26  1  1  0  0  0  0
 27  1  1  0  0  0  0
 28  1  1  0  0  0  0
 29  4  1  0  0  0  0
 30  5  1  0  0  0  0
 31  8  1  0  0  0  0
 32  9  1  0  0  0  0
 33 10  1  0  0  0  0
 15 14  2  0  0  0  0
 16 14  1  0  0  0  0
 17 16  1  0  0  0  0
 18 17  1  0  0  0  0
 34 17  1  0  0  0  0
 35 17  1  0  0  0  0
 19 18  1  0  0  0  0
 22 18  1  0  0  0  0
 36 18  1  0  0  0  0
 20 19  1  0  0  0  0
 21 19  2  0  0  0  0
 37 20  1  0  0  0  0
 38 20  1  0  0  0  0
 39 22  1  0  0  0  0
 40 22  1  0  0  0  0
 23 22  1  0  0  0  0
 24 23  1  0  0  0  0
 41 23  1  0  0  0  0
 42 24  1  0  0  0  0
 43 24  1  0  0  0  0
 25 24  1  0  0  0  0
 44 25  1  0  0  0  0
 11  6  1  0  0  0  0
 12  3  1  0  0  0  0
 25 16  1  0  0  0  0
 25 23  1  0  0  0  0
M  END
>  <FittedScore>
-28.29

$$$$
