A71EV2A-x7515a_lowest-energy
  FITTED

 44 47     0  0  0  0  0  0  0999 V2000
    9.1948    8.7254   23.3829 C    0  0  0  0  0  0  0  0  0  0  0  0
    9.2637   10.5136   23.7701 S    0  0  0  0  0  0  0  0  0  0  0  0
    7.8880   10.8802   24.8714 C    0  0  0  0  0  0  0  0  0  0  0  0
    7.1778    9.8136   25.4599 C    0  0  0  0  0  0  0  0  0  0  0  0
    6.2107   10.0433   26.4135 C    0  0  0  0  0  0  0  0  0  0  0  0
    5.8510   11.3444   26.7474 C    0  0  0  0  0  0  0  0  0  0  0  0
    4.8753   11.5001   27.6527 N    0  0  0  0  0  0  0  0  0  0  0  0
    4.3453   12.7077   27.9172 C    0  0  0  0  0  0  0  0  0  0  0  0
    4.8662   13.8653   27.3341 C    0  0  0  0  0  0  0  0  0  0  0  0
    5.9651   13.7446   26.4536 C    0  0  0  0  0  0  0  0  0  0  0  0
    6.4744   12.4552   26.1177 C    0  0  0  0  0  0  0  0  0  0  0  0
    7.5179   12.2184   25.1903 C    0  0  0  0  0  0  0  0  0  0  0  0
    8.1993   13.3025   24.6399 O    0  0  0  0  0  0  0  0  0  0  0  0
    8.1487   13.6986   23.3410 C    0  0  0  0  0  0  0  0  0  0  0  0
    7.4294   13.1465   22.5147 O    0  0  0  0  0  0  0  0  0  0  0  0
    9.1170   14.6100   22.9858 N    0  0  0  0  0  0  0  0  0  0  0  0
    9.7337   15.5689   23.9294 C    0  0  0  0  0  0  0  0  0  0  0  0
   11.2792   15.6360   23.8866 C    0  0  0  0  0  0  0  0  0  0  0  0
   11.8991   14.4901   24.6961 C    0  0  0  0  0  0  0  0  0  0  0  0
   11.5567   13.2549   24.2811 N    0  0  0  0  0  0  0  0  0  0  0  0
   12.5697   14.6234   25.7010 O    0  0  0  0  0  0  0  0  0  0  0  0
   11.8370   15.8494   22.4356 C    0  0  0  0  0  0  0  0  0  0  0  0
   11.0442   15.0556   21.3953 C    0  0  0  0  0  0  0  0  0  0  0  0
   10.0251   15.7521   20.5446 C    0  0  0  0  0  0  0  0  0  0  0  0
    9.5817   14.7315   21.5511 C    0  0  0  0  0  0  0  0  0  0  0  0
    9.9755    8.4636   22.6712 H    0  0  0  0  0  0  0  0  0  0  0  0
    8.2372    8.4641   22.9402 H    0  0  0  0  0  0  0  0  0  0  0  0
    9.3135    8.1445   24.3087 H    0  0  0  0  0  0  0  0  0  0  0  0
    7.3531    8.7740   25.2355 H    0  0  0  0  0  0  0  0  0  0  0  0
    5.7269    9.1841   26.8802 H    0  0  0  0  0  0  0  0  0  0  0  0
    3.4917   12.7463   28.5878 H    0  0  0  0  0  0  0  0  0  0  0  0
    4.4131   14.8134   27.5655 H    0  0  0  0  0  0  0  0  0  0  0  0
    6.3901   14.6499   26.0150 H    0  0  0  0  0  0  0  0  0  0  0  0
    9.3664   15.4464   24.9478 H    0  0  0  0  0  0  0  0  0  0  0  0
    9.3648   16.5589   23.6300 H    0  0  0  0  0  0  0  0  0  0  0  0
   11.5661   16.5607   24.4010 H    0  0  0  0  0  0  0  0  0  0  0  0
   11.8696   12.4428   24.7873 H    0  0  0  0  0  0  0  0  0  0  0  0
   10.9181   13.1522   23.5065 H    0  0  0  0  0  0  0  0  0  0  0  0
   12.8849   15.5409   22.4020 H    0  0  0  0  0  0  0  0  0  0  0  0
   11.8472   16.9158   22.1903 H    0  0  0  0  0  0  0  0  0  0  0  0
   11.6345   14.2616   20.9493 H    0  0  0  0  0  0  0  0  0  0  0  0
    9.9979   15.4796   19.4900 H    0  0  0  0  0  0  0  0  0  0  0  0
    9.8127   16.8006   20.7383 H    0  0  0  0  0  0  0  0  0  0  0  0
    9.3665   13.7012   21.2814 H    0  0  0  0  0  0  0  0  0  0  0  0
 13 14  1  0  0  0  0
 12 13  1  0  0  0  0
 11 12  2  0  0  0  0
 10 11  1  0  0  0  0
  9 10  2  0  0  0  0
  8  9  1  0  0  0  0
  7  8  2  0  0  0  0
  6  7  1  0  0  0  0
  5  6  2  0  0  0  0
  4  5  1  0  0  0  0
  3  4  2  0  0  0  0
  2  3  1  0  0  0  0
  1  2  1  0  0  0  0
 26  1  1  0  0  0  0
 27  1  1  0  0  0  0
 28  1  1  0  0  0  0
 29  4  1  0  0  0  0
 30  5  1  0  0  0  0
 31  8  1  0  0  0  0
 32  9  1  0  0  0  0
 33 10  1  0  0  0  0
 15 14  2  0  0  0  0
 16 14  1  0  0  0  0
 17 16  1  0  0  0  0
 18 17  1  0  0  0  0
 34 17  1  0  0  0  0
 35 17  1  0  0  0  0
 19 18  1  0  0  0  0
 22 18  1  0  0  0  0
 36 18  1  0  0  0  0
 20 19  1  0  0  0  0
 21 19  2  0  0  0  0
 37 20  1  0  0  0  0
 38 20  1  0  0  0  0
 39 22  1  0  0  0  0
 40 22  1  0  0  0  0
 23 22  1  0  0  0  0
 24 23  1  0  0  0  0
 41 23  1  0  0  0  0
 42 24  1  0  0  0  0
 43 24  1  0  0  0  0
 25 24  1  0  0  0  0
 44 25  1  0  0  0  0
 11  6  1  0  0  0  0
 12  3  1  0  0  0  0
 25 16  1  0  0  0  0
 25 23  1  0  0  0  0
M  END
>  <FittedScore>
-21.91

$$$$
