A71EV2A-x4510a_best-RMSD
  FITTED

 42 43     0  0  0  0  0  0  0999 V2000
    9.3456   10.8895   23.1974 F    0  0  0  0  0  0  0  0  0  0  0  0
    9.3838   10.4135   24.4465 C    0  0  0  0  0  0  0  0  0  0  0  0
   10.4408   11.0141   25.0264 F    0  0  0  0  0  0  0  0  0  0  0  0
    9.6672    9.1070   24.3038 F    0  0  0  0  0  0  0  0  0  0  0  0
    8.0519   10.6436   25.1827 C    0  0  0  0  0  0  0  0  0  0  0  0
    7.1711    9.5272   25.6350 N    0  0  0  0  0  0  0  0  0  0  0  0
    6.2100   10.2492   26.2853 N    0  0  0  0  0  0  0  0  0  0  0  0
    5.3918    9.5719   27.2920 C    0  0  0  0  0  0  0  0  0  0  0  0
    6.3541   11.5958   26.2427 C    0  0  0  0  0  0  0  0  0  0  0  0
    7.5106   11.8733   25.5570 C    0  0  0  0  0  0  0  0  0  0  0  0
    8.0958   13.2632   25.2954 C    0  0  0  0  0  0  0  0  0  0  0  0
    7.4546   14.4327   26.0851 C    0  0  0  0  0  0  0  0  0  0  0  0
    8.1301   13.5860   23.7845 C    0  0  0  0  0  0  0  0  0  0  0  0
    7.1986   13.2015   23.0856 O    0  0  0  0  0  0  0  0  0  0  0  0
    9.1600   14.3442   23.2488 N    0  0  0  0  0  0  0  0  0  0  0  0
    9.0859   14.8668   21.8416 C    0  0  0  0  0  0  0  0  0  0  0  0
   10.4516   14.9552   21.0966 C    0  0  0  0  0  0  0  0  0  0  0  0
   10.3122   15.4639   19.6698 C    0  0  0  0  0  0  0  0  0  0  0  0
    9.5231   16.3304   19.3566 O    0  0  0  0  0  0  0  0  0  0  0  0
   11.0624   14.8316   18.7466 N    0  0  0  0  0  0  0  0  0  0  0  0
   11.4309   15.8365   21.8978 C    0  0  0  0  0  0  0  0  0  0  0  0
   11.6378   15.2430   23.3019 C    0  0  0  0  0  0  0  0  0  0  0  0
   10.3008   14.9504   24.0355 C    0  0  0  0  0  0  0  0  0  0  0  0
    4.4401   10.0813   27.4545 H    0  0  0  0  0  0  0  0  0  0  0  0
    5.9143    9.5359   28.2523 H    0  0  0  0  0  0  0  0  0  0  0  0
    5.1601    8.5406   27.0128 H    0  0  0  0  0  0  0  0  0  0  0  0
    5.6687   12.3106   26.6943 H    0  0  0  0  0  0  0  0  0  0  0  0
    9.0898   13.1582   25.7197 H    0  0  0  0  0  0  0  0  0  0  0  0
    8.0089   15.3592   25.9346 H    0  0  0  0  0  0  0  0  0  0  0  0
    7.4725   14.2153   27.1556 H    0  0  0  0  0  0  0  0  0  0  0  0
    6.4194   14.6000   25.7786 H    0  0  0  0  0  0  0  0  0  0  0  0
    8.4449   14.2350   21.2136 H    0  0  0  0  0  0  0  0  0  0  0  0
    8.6038   15.8587   21.8733 H    0  0  0  0  0  0  0  0  0  0  0  0
   10.8493   13.9384   21.0688 H    0  0  0  0  0  0  0  0  0  0  0  0
   11.0228   15.1271   17.7765 H    0  0  0  0  0  0  0  0  0  0  0  0
   11.5253   13.9620   18.9903 H    0  0  0  0  0  0  0  0  0  0  0  0
   12.3911   15.9046   21.3826 H    0  0  0  0  0  0  0  0  0  0  0  0
   11.0314   16.8524   21.9856 H    0  0  0  0  0  0  0  0  0  0  0  0
   12.2273   14.3258   23.2350 H    0  0  0  0  0  0  0  0  0  0  0  0
   12.2283   15.9477   23.8968 H    0  0  0  0  0  0  0  0  0  0  0  0
   10.6070   14.3247   24.8706 H    0  0  0  0  0  0  0  0  0  0  0  0
    9.9405   15.8927   24.4634 H    0  0  0  0  0  0  0  0  0  0  0  0
 11 13  1  0  0  0  0
 12 11  1  0  0  0  0
 29 12  1  0  0  0  0
 10 11  1  0  0  0  0
  9 10  2  0  0  0  0
  7  9  1  0  0  0  0
  6  7  1  0  0  0  0
  5  6  2  0  0  0  0
  2  5  1  0  0  0  0
  1  2  1  0  0  0  0
  3  2  1  0  0  0  0
  4  2  1  0  0  0  0
  8  7  1  0  0  0  0
 24  8  1  0  0  0  0
 25  8  1  0  0  0  0
 26  8  1  0  0  0  0
 27  9  1  0  0  0  0
 28 11  1  0  0  0  0
 30 12  1  0  0  0  0
 31 12  1  0  0  0  0
 14 13  2  0  0  0  0
 15 13  1  0  0  0  0
 23 15  1  0  0  0  0
 16 15  1  0  0  0  0
 32 16  1  0  0  0  0
 33 16  1  0  0  0  0
 17 16  1  0  0  0  0
 18 17  1  0  0  0  0
 34 17  1  0  0  0  0
 19 18  2  0  0  0  0
 20 18  1  0  0  0  0
 35 20  1  0  0  0  0
 36 20  1  0  0  0  0
 21 17  1  0  0  0  0
 37 21  1  0  0  0  0
 38 21  1  0  0  0  0
 22 21  1  0  0  0  0
 39 22  1  0  0  0  0
 40 22  1  0  0  0  0
 41 23  1  0  0  0  0
 42 23  1  0  0  0  0
 10  5  1  0  0  0  0
 23 22  1  0  0  0  0
M  END
>  <FittedScore>
-35.64

$$$$
