A71EV2A-x4510a_lowest-energy
  FITTED

 42 43     0  0  0  0  0  0  0999 V2000
   10.5726   10.3987   25.0498 F    0  0  0  0  0  0  0  0  0  0  0  0
    9.4884   10.1180   24.3103 C    0  0  0  0  0  0  0  0  0  0  0  0
    9.5879    8.8060   24.0220 F    0  0  0  0  0  0  0  0  0  0  0  0
    9.6289   10.7825   23.1524 F    0  0  0  0  0  0  0  0  0  0  0  0
    8.1909   10.4536   25.0679 C    0  0  0  0  0  0  0  0  0  0  0  0
    7.2238    9.4217   25.5609 N    0  0  0  0  0  0  0  0  0  0  0  0
    6.3952   10.2242   26.2979 N    0  0  0  0  0  0  0  0  0  0  0  0
    5.3422    9.6511   27.1423 C    0  0  0  0  0  0  0  0  0  0  0  0
    6.6550   11.5462   26.2429 C    0  0  0  0  0  0  0  0  0  0  0  0
    7.7926   11.7194   25.4930 C    0  0  0  0  0  0  0  0  0  0  0  0
    8.4942   13.0542   25.2331 C    0  0  0  0  0  0  0  0  0  0  0  0
    8.1307   14.1748   26.2524 C    0  0  0  0  0  0  0  0  0  0  0  0
    8.3235   13.5233   23.7679 C    0  0  0  0  0  0  0  0  0  0  0  0
    7.3487   13.1340   23.1312 O    0  0  0  0  0  0  0  0  0  0  0  0
    9.2821   14.3459   23.1946 N    0  0  0  0  0  0  0  0  0  0  0  0
    9.1453   14.8787   21.7982 C    0  0  0  0  0  0  0  0  0  0  0  0
   10.4740   14.9120   20.9808 C    0  0  0  0  0  0  0  0  0  0  0  0
   10.2789   15.4518   19.5718 C    0  0  0  0  0  0  0  0  0  0  0  0
    9.4133   16.2448   19.2667 O    0  0  0  0  0  0  0  0  0  0  0  0
   11.1759   15.0360   18.6564 N    0  0  0  0  0  0  0  0  0  0  0  0
   11.5848   15.6788   21.7408 C    0  0  0  0  0  0  0  0  0  0  0  0
   11.7692   15.0744   23.1457 C    0  0  0  0  0  0  0  0  0  0  0  0
   10.4335   15.0091   23.9137 C    0  0  0  0  0  0  0  0  0  0  0  0
    4.3699    9.7122   26.6486 H    0  0  0  0  0  0  0  0  0  0  0  0
    5.2566   10.1756   28.0989 H    0  0  0  0  0  0  0  0  0  0  0  0
    5.5213    8.5999   27.3853 H    0  0  0  0  0  0  0  0  0  0  0  0
    6.0688   12.3161   26.7362 H    0  0  0  0  0  0  0  0  0  0  0  0
    9.5404   12.8093   25.4164 H    0  0  0  0  0  0  0  0  0  0  0  0
    7.1020   14.5143   26.1210 H    0  0  0  0  0  0  0  0  0  0  0  0
    8.7805   15.0443   26.1757 H    0  0  0  0  0  0  0  0  0  0  0  0
    8.2492   13.7993   27.2720 H    0  0  0  0  0  0  0  0  0  0  0  0
    8.4396   14.2863   21.2067 H    0  0  0  0  0  0  0  0  0  0  0  0
    8.7139   15.8851   21.8578 H    0  0  0  0  0  0  0  0  0  0  0  0
   10.7996   13.8681   20.8885 H    0  0  0  0  0  0  0  0  0  0  0  0
   11.0861   15.3408   17.6938 H    0  0  0  0  0  0  0  0  0  0  0  0
   11.9149   14.4013   18.9256 H    0  0  0  0  0  0  0  0  0  0  0  0
   12.5344   15.6041   21.2052 H    0  0  0  0  0  0  0  0  0  0  0  0
   11.3340   16.7417   21.8185 H    0  0  0  0  0  0  0  0  0  0  0  0
   12.1997   14.0703   23.0620 H    0  0  0  0  0  0  0  0  0  0  0  0
   12.4873   15.6789   23.7083 H    0  0  0  0  0  0  0  0  0  0  0  0
   10.6977   14.5341   24.8516 H    0  0  0  0  0  0  0  0  0  0  0  0
   10.1310   16.0296   24.1706 H    0  0  0  0  0  0  0  0  0  0  0  0
 11 13  1  0  0  0  0
 12 11  1  0  0  0  0
 29 12  1  0  0  0  0
 10 11  1  0  0  0  0
  9 10  2  0  0  0  0
  7  9  1  0  0  0  0
  6  7  1  0  0  0  0
  5  6  2  0  0  0  0
  2  5  1  0  0  0  0
  1  2  1  0  0  0  0
  3  2  1  0  0  0  0
  4  2  1  0  0  0  0
  8  7  1  0  0  0  0
 24  8  1  0  0  0  0
 25  8  1  0  0  0  0
 26  8  1  0  0  0  0
 27  9  1  0  0  0  0
 28 11  1  0  0  0  0
 30 12  1  0  0  0  0
 31 12  1  0  0  0  0
 14 13  2  0  0  0  0
 15 13  1  0  0  0  0
 23 15  1  0  0  0  0
 16 15  1  0  0  0  0
 32 16  1  0  0  0  0
 33 16  1  0  0  0  0
 17 16  1  0  0  0  0
 18 17  1  0  0  0  0
 34 17  1  0  0  0  0
 19 18  2  0  0  0  0
 20 18  1  0  0  0  0
 35 20  1  0  0  0  0
 36 20  1  0  0  0  0
 21 17  1  0  0  0  0
 37 21  1  0  0  0  0
 38 21  1  0  0  0  0
 22 21  1  0  0  0  0
 39 22  1  0  0  0  0
 40 22  1  0  0  0  0
 41 23  1  0  0  0  0
 42 23  1  0  0  0  0
 10  5  1  0  0  0  0
 23 22  1  0  0  0  0
M  END
>  <FittedScore>
-35.37

$$$$
