A71EV2A-x6938a_best-RMSD
  FITTED

 54 56     0  0  0  0  0  0  0999 V2000
    9.5891    8.9260   23.4963 C    0  0  0  0  0  0  0  0  0  0  0  0
    9.2929   10.6242   24.0820 S    0  0  0  0  0  0  0  0  0  0  0  0
    7.7217   10.6867   24.9544 C    0  0  0  0  0  0  0  0  0  0  0  0
    7.0605    9.4916   25.2935 C    0  0  0  0  0  0  0  0  0  0  0  0
    5.8386    9.5087   25.9666 C    0  0  0  0  0  0  0  0  0  0  0  0
    5.2437   10.7193   26.3025 C    0  0  0  0  0  0  0  0  0  0  0  0
    5.8711   11.9296   25.9734 C    0  0  0  0  0  0  0  0  0  0  0  0
    5.1180   13.1740   26.2990 C    0  0  0  0  0  0  0  0  0  0  0  0
    5.2913   13.7205   27.5085 C    0  0  0  0  0  0  0  0  0  0  0  0
    4.6357   15.0302   27.9367 C    0  0  0  0  0  0  0  0  0  0  0  0
    3.5358   15.5323   26.9530 C    0  0  0  0  0  0  0  0  0  0  0  0
    3.8978   15.2505   25.4671 C    0  0  0  0  0  0  0  0  0  0  0  0
    4.1904   13.7478   25.2338 C    0  0  0  0  0  0  0  0  0  0  0  0
    7.1316   11.9340   25.3091 C    0  0  0  0  0  0  0  0  0  0  0  0
    7.8588   13.2695   24.9904 C    0  0  0  0  0  0  0  0  0  0  0  0
    7.8484   13.6983   23.5086 C    0  0  0  0  0  0  0  0  0  0  0  0
    7.1040   13.1321   22.7293 O    0  0  0  0  0  0  0  0  0  0  0  0
    8.6605   14.7323   23.0799 N    0  0  0  0  0  0  0  0  0  0  0  0
    9.4769   15.6421   23.9546 C    0  0  0  0  0  0  0  0  0  0  0  0
   10.9789   15.6728   23.5580 C    0  0  0  0  0  0  0  0  0  0  0  0
   11.1662   16.0825   22.0724 C    0  0  0  0  0  0  0  0  0  0  0  0
   10.2674   15.2190   21.1343 C    0  0  0  0  0  0  0  0  0  0  0  0
   10.3413   15.7154   19.6893 C    0  0  0  0  0  0  0  0  0  0  0  0
   10.7686   14.8257   18.7734 N    0  0  0  0  0  0  0  0  0  0  0  0
    9.9650   16.8178   19.3338 O    0  0  0  0  0  0  0  0  0  0  0  0
    8.7908   15.1610   21.6440 C    0  0  0  0  0  0  0  0  0  0  0  0
   10.4790    8.9206   22.8656 H    0  0  0  0  0  0  0  0  0  0  0  0
    8.7369    8.5749   22.9106 H    0  0  0  0  0  0  0  0  0  0  0  0
    9.7609    8.2602   24.3453 H    0  0  0  0  0  0  0  0  0  0  0  0
    7.4767    8.5191   25.0572 H    0  0  0  0  0  0  0  0  0  0  0  0
    5.3466    8.5741   26.2217 H    0  0  0  0  0  0  0  0  0  0  0  0
    4.2824   10.7134   26.8134 H    0  0  0  0  0  0  0  0  0  0  0  0
    5.9747   13.2447   28.2125 H    0  0  0  0  0  0  0  0  0  0  0  0
    5.4085   15.7968   28.0356 H    0  0  0  0  0  0  0  0  0  0  0  0
    4.1949   14.9090   28.9317 H    0  0  0  0  0  0  0  0  0  0  0  0
    3.3798   16.6046   27.0931 H    0  0  0  0  0  0  0  0  0  0  0  0
    2.5871   15.0427   27.1928 H    0  0  0  0  0  0  0  0  0  0  0  0
    4.7736   15.8386   25.1776 H    0  0  0  0  0  0  0  0  0  0  0  0
    3.0724   15.5638   24.8217 H    0  0  0  0  0  0  0  0  0  0  0  0
    4.6348   13.6244   24.2417 H    0  0  0  0  0  0  0  0  0  0  0  0
    3.2565   13.1784   25.2235 H    0  0  0  0  0  0  0  0  0  0  0  0
    8.8841   13.1701   25.3591 H    0  0  0  0  0  0  0  0  0  0  0  0
    7.4503   14.1003   25.5696 H    0  0  0  0  0  0  0  0  0  0  0  0
    9.4213   15.3971   25.0153 H    0  0  0  0  0  0  0  0  0  0  0  0
    9.0596   16.6521   23.8902 H    0  0  0  0  0  0  0  0  0  0  0  0
   11.4188   14.6862   23.7312 H    0  0  0  0  0  0  0  0  0  0  0  0
   11.5117   16.3776   24.2041 H    0  0  0  0  0  0  0  0  0  0  0  0
   12.2152   15.9581   21.7924 H    0  0  0  0  0  0  0  0  0  0  0  0
   10.9277   17.1470   21.9589 H    0  0  0  0  0  0  0  0  0  0  0  0
   10.6553   14.1933   21.1832 H    0  0  0  0  0  0  0  0  0  0  0  0
   10.7435   15.0705   17.7935 H    0  0  0  0  0  0  0  0  0  0  0  0
   10.9691   13.8619   19.0370 H    0  0  0  0  0  0  0  0  0  0  0  0
    8.2397   14.5079   20.9626 H    0  0  0  0  0  0  0  0  0  0  0  0
    8.3224   16.1449   21.5363 H    0  0  0  0  0  0  0  0  0  0  0  0
 14 15  1  0  0  0  0
  7 14  2  0  0  0  0
  6  7  1  0  0  0  0
  5  6  2  0  0  0  0
  4  5  1  0  0  0  0
  3  4  2  0  0  0  0
  2  3  1  0  0  0  0
  1  2  1  0  0  0  0
 27  1  1  0  0  0  0
 28  1  1  0  0  0  0
 29  1  1  0  0  0  0
 30  4  1  0  0  0  0
 31  5  1  0  0  0  0
 32  6  1  0  0  0  0
  8  7  1  0  0  0  0
  9  8  2  0  0  0  0
 10  9  1  0  0  0  0
 33  9  1  0  0  0  0
 11 10  1  0  0  0  0
 34 10  1  0  0  0  0
 35 10  1  0  0  0  0
 12 11  1  0  0  0  0
 36 11  1  0  0  0  0
 37 11  1  0  0  0  0
 13 12  1  0  0  0  0
 38 12  1  0  0  0  0
 39 12  1  0  0  0  0
 40 13  1  0  0  0  0
 41 13  1  0  0  0  0
 16 15  1  0  0  0  0
 42 15  1  0  0  0  0
 43 15  1  0  0  0  0
 17 16  2  0  0  0  0
 18 16  1  0  0  0  0
 19 18  1  0  0  0  0
 20 19  1  0  0  0  0
 44 19  1  0  0  0  0
 45 19  1  0  0  0  0
 21 20  1  0  0  0  0
 46 20  1  0  0  0  0
 47 20  1  0  0  0  0
 22 21  1  0  0  0  0
 48 21  1  0  0  0  0
 49 21  1  0  0  0  0
 23 22  1  0  0  0  0
 26 22  1  0  0  0  0
 50 22  1  0  0  0  0
 24 23  1  0  0  0  0
 25 23  2  0  0  0  0
 51 24  1  0  0  0  0
 52 24  1  0  0  0  0
 53 26  1  0  0  0  0
 54 26  1  0  0  0  0
 13  8  1  0  0  0  0
 14  3  1  0  0  0  0
 26 18  1  0  0  0  0
M  END
>  <FittedScore>
-34.48

$$$$
