A71EV2A-x6938a_lowest-energy
  FITTED

 54 56     0  0  0  0  0  0  0999 V2000
    9.3692    8.7202   23.4328 C    0  0  0  0  0  0  0  0  0  0  0  0
    9.2790   10.4131   24.0891 S    0  0  0  0  0  0  0  0  0  0  0  0
    7.7165   10.6034   24.9707 C    0  0  0  0  0  0  0  0  0  0  0  0
    6.9394    9.4735   25.2996 C    0  0  0  0  0  0  0  0  0  0  0  0
    5.7048    9.6046   25.9401 C    0  0  0  0  0  0  0  0  0  0  0  0
    5.2125   10.8682   26.2517 C    0  0  0  0  0  0  0  0  0  0  0  0
    5.9609   12.0147   25.9484 C    0  0  0  0  0  0  0  0  0  0  0  0
    5.3053   13.3313   26.2141 C    0  0  0  0  0  0  0  0  0  0  0  0
    5.6585   14.0045   27.3161 C    0  0  0  0  0  0  0  0  0  0  0  0
    5.1345   15.3965   27.6500 C    0  0  0  0  0  0  0  0  0  0  0  0
    3.8787   15.7998   26.8237 C    0  0  0  0  0  0  0  0  0  0  0  0
    3.9986   15.3567   25.3399 C    0  0  0  0  0  0  0  0  0  0  0  0
    4.2691   13.8345   25.2122 C    0  0  0  0  0  0  0  0  0  0  0  0
    7.2375   11.8958   25.3294 C    0  0  0  0  0  0  0  0  0  0  0  0
    8.0630   13.1625   24.9921 C    0  0  0  0  0  0  0  0  0  0  0  0
    7.8955   13.6750   23.5526 C    0  0  0  0  0  0  0  0  0  0  0  0
    7.0927   13.1317   22.8099 O    0  0  0  0  0  0  0  0  0  0  0  0
    8.6670   14.7346   23.1175 N    0  0  0  0  0  0  0  0  0  0  0  0
    9.4878   15.6543   23.9824 C    0  0  0  0  0  0  0  0  0  0  0  0
   10.9603   15.8085   23.5134 C    0  0  0  0  0  0  0  0  0  0  0  0
   11.0555   16.2254   22.0226 C    0  0  0  0  0  0  0  0  0  0  0  0
   10.1789   15.2966   21.1347 C    0  0  0  0  0  0  0  0  0  0  0  0
   10.1984   15.7490   19.6808 C    0  0  0  0  0  0  0  0  0  0  0  0
   10.6124   14.8299   18.7949 N    0  0  0  0  0  0  0  0  0  0  0  0
    9.7737   16.8193   19.2885 O    0  0  0  0  0  0  0  0  0  0  0  0
    8.7226   15.1841   21.6856 C    0  0  0  0  0  0  0  0  0  0  0  0
    8.5014    8.5199   22.7985 H    0  0  0  0  0  0  0  0  0  0  0  0
    9.4064    7.9996   24.2499 H    0  0  0  0  0  0  0  0  0  0  0  0
   10.2740    8.6092   22.8331 H    0  0  0  0  0  0  0  0  0  0  0  0
    7.2609    8.4681   25.0586 H    0  0  0  0  0  0  0  0  0  0  0  0
    5.1143    8.7218   26.1727 H    0  0  0  0  0  0  0  0  0  0  0  0
    4.2333   10.9580   26.7181 H    0  0  0  0  0  0  0  0  0  0  0  0
    6.4154   13.5811   27.9736 H    0  0  0  0  0  0  0  0  0  0  0  0
    5.9303   16.1283   27.4826 H    0  0  0  0  0  0  0  0  0  0  0  0
    4.8907   15.4438   28.7149 H    0  0  0  0  0  0  0  0  0  0  0  0
    3.7398   16.8834   26.8725 H    0  0  0  0  0  0  0  0  0  0  0  0
    2.9873   15.3463   27.2704 H    0  0  0  0  0  0  0  0  0  0  0  0
    4.8029   15.9145   24.8526 H    0  0  0  0  0  0  0  0  0  0  0  0
    3.0756   15.6046   24.8094 H    0  0  0  0  0  0  0  0  0  0  0  0
    4.6121   13.6249   24.1956 H    0  0  0  0  0  0  0  0  0  0  0  0
    3.3372   13.2778   25.3430 H    0  0  0  0  0  0  0  0  0  0  0  0
    9.1185   12.9766   25.2052 H    0  0  0  0  0  0  0  0  0  0  0  0
    7.8159   13.9731   25.6759 H    0  0  0  0  0  0  0  0  0  0  0  0
    9.5269   15.3509   25.0270 H    0  0  0  0  0  0  0  0  0  0  0  0
    9.0062   16.6373   23.9971 H    0  0  0  0  0  0  0  0  0  0  0  0
   11.4960   14.8660   23.6690 H    0  0  0  0  0  0  0  0  0  0  0  0
   11.4584   16.5622   24.1301 H    0  0  0  0  0  0  0  0  0  0  0  0
   12.0972   16.1690   21.6983 H    0  0  0  0  0  0  0  0  0  0  0  0
   10.7472   17.2711   21.9176 H    0  0  0  0  0  0  0  0  0  0  0  0
   10.6163   14.2932   21.2081 H    0  0  0  0  0  0  0  0  0  0  0  0
   10.7950   13.8807   19.0841 H    0  0  0  0  0  0  0  0  0  0  0  0
   10.6241   15.0549   17.8118 H    0  0  0  0  0  0  0  0  0  0  0  0
    8.1769   14.5052   21.0241 H    0  0  0  0  0  0  0  0  0  0  0  0
    8.2024   16.1454   21.6052 H    0  0  0  0  0  0  0  0  0  0  0  0
 14 15  1  0  0  0  0
  7 14  2  0  0  0  0
  6  7  1  0  0  0  0
  5  6  2  0  0  0  0
  4  5  1  0  0  0  0
  3  4  2  0  0  0  0
  2  3  1  0  0  0  0
  1  2  1  0  0  0  0
 27  1  1  0  0  0  0
 28  1  1  0  0  0  0
 29  1  1  0  0  0  0
 30  4  1  0  0  0  0
 31  5  1  0  0  0  0
 32  6  1  0  0  0  0
  8  7  1  0  0  0  0
  9  8  2  0  0  0  0
 10  9  1  0  0  0  0
 33  9  1  0  0  0  0
 11 10  1  0  0  0  0
 34 10  1  0  0  0  0
 35 10  1  0  0  0  0
 12 11  1  0  0  0  0
 36 11  1  0  0  0  0
 37 11  1  0  0  0  0
 13 12  1  0  0  0  0
 38 12  1  0  0  0  0
 39 12  1  0  0  0  0
 40 13  1  0  0  0  0
 41 13  1  0  0  0  0
 16 15  1  0  0  0  0
 42 15  1  0  0  0  0
 43 15  1  0  0  0  0
 17 16  2  0  0  0  0
 18 16  1  0  0  0  0
 19 18  1  0  0  0  0
 20 19  1  0  0  0  0
 44 19  1  0  0  0  0
 45 19  1  0  0  0  0
 21 20  1  0  0  0  0
 46 20  1  0  0  0  0
 47 20  1  0  0  0  0
 22 21  1  0  0  0  0
 48 21  1  0  0  0  0
 49 21  1  0  0  0  0
 23 22  1  0  0  0  0
 26 22  1  0  0  0  0
 50 22  1  0  0  0  0
 24 23  1  0  0  0  0
 25 23  2  0  0  0  0
 51 24  1  0  0  0  0
 52 24  1  0  0  0  0
 53 26  1  0  0  0  0
 54 26  1  0  0  0  0
 13  8  1  0  0  0  0
 14  3  1  0  0  0  0
 26 18  1  0  0  0  0
M  END
>  <FittedScore>
-34.89

$$$$
