A71EV2A-x3379a_best-RMSD
  FITTED

 37 39     0  0  0  0  0  0  0999 V2000
    8.4270   14.4809   24.5371 O    0  0  0  0  0  0  0  0  0  0  0  0
    9.0065   13.5515   24.0067 C    0  0  0  0  0  0  0  0  0  0  0  0
    8.6671   12.1025   24.2173 C    0  0  0  0  0  0  0  0  0  0  0  0
    7.6830   11.5876   25.0536 C    0  0  0  0  0  0  0  0  0  0  0  0
    6.7828   12.2097   25.9373 C    0  0  0  0  0  0  0  0  0  0  0  0
    5.9136   11.3982   26.6859 C    0  0  0  0  0  0  0  0  0  0  0  0
    5.9262    9.9969   26.5222 C    0  0  0  0  0  0  0  0  0  0  0  0
    6.8205    9.3985   25.6171 C    0  0  0  0  0  0  0  0  0  0  0  0
    7.7138   10.2171   24.9172 C    0  0  0  0  0  0  0  0  0  0  0  0
    8.7145    9.8977   24.0461 N    0  0  0  0  0  0  0  0  0  0  0  0
    9.0182    8.5747   23.4951 C    0  0  0  0  0  0  0  0  0  0  0  0
    9.3890   10.9717   23.5515 N    0  0  0  0  0  0  0  0  0  0  0  0
   10.1742   13.6884   23.3329 N    0  0  0  0  0  0  0  0  0  0  0  0
   11.1312   14.7998   23.4639 C    0  0  0  0  0  0  0  0  0  0  0  0
   12.2515   14.3660   24.4384 C    0  0  0  0  0  0  0  0  0  0  0  0
   11.6919   15.2423   22.0858 C    0  0  0  0  0  0  0  0  0  0  0  0
   10.6629   15.6986   21.0643 C    0  0  0  0  0  0  0  0  0  0  0  0
    9.4772   16.5066   21.3742 N    0  0  0  0  0  0  0  0  0  0  0  0
    9.0153   16.8182   20.0215 C    0  0  0  0  0  0  0  0  0  0  0  0
    9.7742   16.2111   19.0518 O    0  0  0  0  0  0  0  0  0  0  0  0
   10.7818   15.5442   19.6960 C    0  0  0  0  0  0  0  0  0  0  0  0
    6.7489   13.2889   26.0577 H    0  0  0  0  0  0  0  0  0  0  0  0
    5.2272   11.8567   27.3933 H    0  0  0  0  0  0  0  0  0  0  0  0
    5.2474    9.3762   27.1007 H    0  0  0  0  0  0  0  0  0  0  0  0
    6.8310    8.3207   25.4901 H    0  0  0  0  0  0  0  0  0  0  0  0
    8.1098    8.0816   23.1419 H    0  0  0  0  0  0  0  0  0  0  0  0
    9.4715    7.9285   24.2499 H    0  0  0  0  0  0  0  0  0  0  0  0
    9.7067    8.6154   22.6455 H    0  0  0  0  0  0  0  0  0  0  0  0
   10.5660   12.8373   22.9497 H    0  0  0  0  0  0  0  0  0  0  0  0
   10.6403   15.6735   23.9078 H    0  0  0  0  0  0  0  0  0  0  0  0
   12.8294   13.5347   24.0235 H    0  0  0  0  0  0  0  0  0  0  0  0
   11.8419   14.0523   25.4046 H    0  0  0  0  0  0  0  0  0  0  0  0
   12.9354   15.1982   24.6219 H    0  0  0  0  0  0  0  0  0  0  0  0
   12.2765   14.4234   21.6567 H    0  0  0  0  0  0  0  0  0  0  0  0
   12.3906   16.0693   22.2373 H    0  0  0  0  0  0  0  0  0  0  0  0
    8.1634   17.4689   19.8463 H    0  0  0  0  0  0  0  0  0  0  0  0
   11.5759   15.0051   19.1881 H    0  0  0  0  0  0  0  0  0  0  0  0
  2  1  2  0  0  0  0
  3  2  1  0  0  0  0
 12  3  2  0  0  0  0
  4  3  1  0  0  0  0
  5  4  1  0  0  0  0
 22  5  1  0  0  0  0
  6  5  2  0  0  0  0
 23  6  1  0  0  0  0
  7  6  1  0  0  0  0
 24  7  1  0  0  0  0
  8  7  2  0  0  0  0
 25  8  1  0  0  0  0
  9  8  1  0  0  0  0
 10  9  1  0  0  0  0
 11 10  1  0  0  0  0
 26 11  1  0  0  0  0
 27 11  1  0  0  0  0
 28 11  1  0  0  0  0
 13  2  1  0  0  0  0
 29 13  1  0  0  0  0
 14 13  1  0  0  0  0
 15 14  1  0  0  0  0
 30 14  1  0  0  0  0
 31 15  1  0  0  0  0
 32 15  1  0  0  0  0
 33 15  1  0  0  0  0
 16 14  1  0  0  0  0
 34 16  1  0  0  0  0
 35 16  1  0  0  0  0
 17 16  1  0  0  0  0
 21 17  2  0  0  0  0
 18 17  1  0  0  0  0
 19 18  2  0  0  0  0
 36 19  1  0  0  0  0
 20 19  1  0  0  0  0
 37 21  1  0  0  0  0
  9  4  2  0  0  0  0
 12 10  1  0  0  0  0
 21 20  1  0  0  0  0
M  END
>  <FittedScore>
-26.32

$$$$
