A71EV2A-x6816a_lowest-energy
  FITTED

 51 53     0  0  0  0  0  0  0999 V2000
    9.0479    8.8641   23.4699 C    0  0  0  0  0  0  0  0  0  0  0  0
    9.0817   10.6337   23.8695 S    0  0  0  0  0  0  0  0  0  0  0  0
    7.5917   11.0368   24.7856 C    0  0  0  0  0  0  0  0  0  0  0  0
    6.9921   10.0640   25.6098 C    0  0  0  0  0  0  0  0  0  0  0  0
    5.8964   10.3801   26.4190 C    0  0  0  0  0  0  0  0  0  0  0  0
    5.3848   11.6799   26.4200 C    0  0  0  0  0  0  0  0  0  0  0  0
    5.9540   12.6558   25.5942 C    0  0  0  0  0  0  0  0  0  0  0  0
    7.0409   12.3481   24.7339 C    0  0  0  0  0  0  0  0  0  0  0  0
    7.6135   13.3965   23.7402 C    0  0  0  0  0  0  0  0  0  0  0  0
    6.6727   14.4902   23.4509 N    0  0  0  0  0  0  0  0  0  0  0  0
    5.7147   14.5462   22.4960 C    0  0  0  0  0  0  0  0  0  0  0  0
    5.5009   13.6356   21.7112 O    0  0  0  0  0  0  0  0  0  0  0  0
    5.0654   15.9206   22.3344 C    0  0  0  0  0  0  0  0  0  0  0  0
    4.6999   16.5603   23.6148 N    0  0  0  0  0  0  0  0  0  0  0  0
    3.5433   16.3480   24.3024 C    0  0  0  0  0  0  0  0  0  0  0  0
    3.5881   17.1151   25.4367 C    0  0  0  0  0  0  0  0  0  0  0  0
    4.7981   17.7715   25.4008 C    0  0  0  0  0  0  0  0  0  0  0  0
    5.5793   17.4357   24.1906 N    0  0  0  0  0  0  0  0  0  0  0  0
    8.9674   14.0135   24.1644 C    0  0  0  0  0  0  0  0  0  0  0  0
    9.3485   13.9521   25.3215 O    0  0  0  0  0  0  0  0  0  0  0  0
    9.7302   14.6619   23.2188 N    0  0  0  0  0  0  0  0  0  0  0  0
   10.9537   15.4530   23.4944 C    0  0  0  0  0  0  0  0  0  0  0  0
   11.4253   16.0860   22.1680 C    0  0  0  0  0  0  0  0  0  0  0  0
   10.8269   15.1404   21.1139 C    0  0  0  0  0  0  0  0  0  0  0  0
   10.6413   15.7015   19.7059 C    0  0  0  0  0  0  0  0  0  0  0  0
   10.8452   14.8108   18.7137 N    0  0  0  0  0  0  0  0  0  0  0  0
   10.0504   16.7390   19.4769 O    0  0  0  0  0  0  0  0  0  0  0  0
    9.5088   14.6817   21.7578 C    0  0  0  0  0  0  0  0  0  0  0  0
    9.2394    8.2774   24.3712 H    0  0  0  0  0  0  0  0  0  0  0  0
    9.8418    8.6577   22.7526 H    0  0  0  0  0  0  0  0  0  0  0  0
    8.0889    8.5852   23.0315 H    0  0  0  0  0  0  0  0  0  0  0  0
    7.3880    9.0559   25.6660 H    0  0  0  0  0  0  0  0  0  0  0  0
    5.4517    9.6173   27.0546 H    0  0  0  0  0  0  0  0  0  0  0  0
    4.5386   11.9307   27.0562 H    0  0  0  0  0  0  0  0  0  0  0  0
    5.5228   13.6531   25.6308 H    0  0  0  0  0  0  0  0  0  0  0  0
    7.7450   12.8573   22.8028 H    0  0  0  0  0  0  0  0  0  0  0  0
    6.8076   15.3157   24.0169 H    0  0  0  0  0  0  0  0  0  0  0  0
    4.1716   15.8198   21.7085 H    0  0  0  0  0  0  0  0  0  0  0  0
    5.7465   16.5512   21.7495 H    0  0  0  0  0  0  0  0  0  0  0  0
    2.7348   15.6843   24.0013 H    0  0  0  0  0  0  0  0  0  0  0  0
    2.8267   17.1987   26.2026 H    0  0  0  0  0  0  0  0  0  0  0  0
    5.1777   18.4664   26.1435 H    0  0  0  0  0  0  0  0  0  0  0  0
   11.7328   14.8011   23.9038 H    0  0  0  0  0  0  0  0  0  0  0  0
   10.7414   16.2325   24.2311 H    0  0  0  0  0  0  0  0  0  0  0  0
   12.5176   16.1278   22.1028 H    0  0  0  0  0  0  0  0  0  0  0  0
   11.0275   17.1013   22.0737 H    0  0  0  0  0  0  0  0  0  0  0  0
   11.4982   14.2717   21.0629 H    0  0  0  0  0  0  0  0  0  0  0  0
   10.9909   13.8249   18.9341 H    0  0  0  0  0  0  0  0  0  0  0  0
   10.7801   15.0985   17.7416 H    0  0  0  0  0  0  0  0  0  0  0  0
    9.2613   13.6914   21.3680 H    0  0  0  0  0  0  0  0  0  0  0  0
    8.6847   15.3623   21.5220 H    0  0  0  0  0  0  0  0  0  0  0  0
  8  9  1  0  0  0  0
  7  8  2  0  0  0  0
  6  7  1  0  0  0  0
  5  6  2  0  0  0  0
  4  5  1  0  0  0  0
  3  4  2  0  0  0  0
  2  3  1  0  0  0  0
  1  2  1  0  0  0  0
 29  1  1  0  0  0  0
 30  1  1  0  0  0  0
 31  1  1  0  0  0  0
 32  4  1  0  0  0  0
 33  5  1  0  0  0  0
 34  6  1  0  0  0  0
 35  7  1  0  0  0  0
 10  9  1  0  0  0  0
 19  9  1  0  0  0  0
 36  9  1  0  0  0  0
 11 10  1  0  0  0  0
 37 10  1  0  0  0  0
 12 11  2  0  0  0  0
 13 11  1  0  0  0  0
 14 13  1  0  0  0  0
 38 13  1  0  0  0  0
 39 13  1  0  0  0  0
 15 14  1  0  0  0  0
 16 15  2  0  0  0  0
 40 15  1  0  0  0  0
 17 16  1  0  0  0  0
 41 16  1  0  0  0  0
 18 17  2  0  0  0  0
 42 17  1  0  0  0  0
 20 19  2  0  0  0  0
 21 19  1  0  0  0  0
 22 21  1  0  0  0  0
 23 22  1  0  0  0  0
 43 22  1  0  0  0  0
 44 22  1  0  0  0  0
 24 23  1  0  0  0  0
 45 23  1  0  0  0  0
 46 23  1  0  0  0  0
 25 24  1  0  0  0  0
 28 24  1  0  0  0  0
 47 24  1  0  0  0  0
 26 25  1  0  0  0  0
 27 25  2  0  0  0  0
 48 26  1  0  0  0  0
 49 26  1  0  0  0  0
 50 28  1  0  0  0  0
 51 28  1  0  0  0  0
  8  3  1  0  0  0  0
 18 14  1  0  0  0  0
 28 21  1  0  0  0  0
M  END
>  <FittedScore>
-36.75

$$$$
