A71EV2A-x5461a_best-RMSD
  FITTED

 40 41     0  0  0  0  0  0  0999 V2000
    9.2764    9.0798   23.4646 C    0  0  0  0  0  0  0  0  0  0  0  0
    8.8770   10.8395   23.6393 S    0  0  0  0  0  0  0  0  0  0  0  0
    7.5580   10.9944   24.8528 C    0  0  0  0  0  0  0  0  0  0  0  0
    7.0009    9.8572   25.4727 C    0  0  0  0  0  0  0  0  0  0  0  0
    6.0555    9.9811   26.4943 C    0  0  0  0  0  0  0  0  0  0  0  0
    5.6469   11.2368   26.9278 C    0  0  0  0  0  0  0  0  0  0  0  0
    6.1565   12.3749   26.3013 C    0  0  0  0  0  0  0  0  0  0  0  0
    7.0742   12.2777   25.2180 C    0  0  0  0  0  0  0  0  0  0  0  0
    7.4613   13.5172   24.3731 C    0  0  0  0  0  0  0  0  0  0  0  0
    6.5488   14.6485   24.6270 N    0  0  0  0  0  0  0  0  0  0  0  0
    8.8780   14.0546   24.5898 C    0  0  0  0  0  0  0  0  0  0  0  0
    9.2687   14.1556   25.7342 O    0  0  0  0  0  0  0  0  0  0  0  0
    9.5994   14.5880   23.5431 N    0  0  0  0  0  0  0  0  0  0  0  0
   10.8674   15.3428   23.6962 C    0  0  0  0  0  0  0  0  0  0  0  0
   11.2527   15.9361   22.3298 C    0  0  0  0  0  0  0  0  0  0  0  0
   10.5421   14.9979   21.3475 C    0  0  0  0  0  0  0  0  0  0  0  0
   10.3206   15.5689   19.9452 C    0  0  0  0  0  0  0  0  0  0  0  0
   10.7627   14.8138   18.9250 N    0  0  0  0  0  0  0  0  0  0  0  0
    9.6889   16.5721   19.6980 O    0  0  0  0  0  0  0  0  0  0  0  0
    9.2623   14.5779   22.1017 C    0  0  0  0  0  0  0  0  0  0  0  0
    8.4207    8.5422   23.0564 H    0  0  0  0  0  0  0  0  0  0  0  0
    9.5651    8.6744   24.4356 H    0  0  0  0  0  0  0  0  0  0  0  0
   10.1204    8.9892   22.7837 H    0  0  0  0  0  0  0  0  0  0  0  0
    7.2939    8.8519   25.1998 H    0  0  0  0  0  0  0  0  0  0  0  0
    5.6479    9.0896   26.9632 H    0  0  0  0  0  0  0  0  0  0  0  0
    4.9283   11.3271   27.7400 H    0  0  0  0  0  0  0  0  0  0  0  0
    5.8015   13.3305   26.6745 H    0  0  0  0  0  0  0  0  0  0  0  0
    7.2631   13.2636   23.3310 H    0  0  0  0  0  0  0  0  0  0  0  0
    6.6534   14.9891   25.6050 H    0  0  0  0  0  0  0  0  0  0  0  0
    5.5606   14.4088   24.4590 H    0  0  0  0  0  0  0  0  0  0  0  0
    6.8088   15.4164   23.9997 H    0  0  0  0  0  0  0  0  0  0  0  0
   11.6513   14.6708   24.0590 H    0  0  0  0  0  0  0  0  0  0  0  0
   10.7468   16.1470   24.4292 H    0  0  0  0  0  0  0  0  0  0  0  0
   12.3353   15.9332   22.1809 H    0  0  0  0  0  0  0  0  0  0  0  0
   10.8893   16.9660   22.2419 H    0  0  0  0  0  0  0  0  0  0  0  0
   11.1737   14.1037   21.2677 H    0  0  0  0  0  0  0  0  0  0  0  0
   11.0947   13.8669   19.1025 H    0  0  0  0  0  0  0  0  0  0  0  0
   10.6649   15.1534   17.9726 H    0  0  0  0  0  0  0  0  0  0  0  0
    8.9596   13.5818   21.7695 H    0  0  0  0  0  0  0  0  0  0  0  0
    8.4371   15.2712   21.9125 H    0  0  0  0  0  0  0  0  0  0  0  0
  9 11  1  0  0  0  0
  8  9  1  0  0  0  0
  7  8  2  0  0  0  0
  6  7  1  0  0  0  0
  5  6  2  0  0  0  0
  4  5  1  0  0  0  0
  3  4  2  0  0  0  0
  2  3  1  0  0  0  0
  1  2  1  0  0  0  0
 21  1  1  0  0  0  0
 22  1  1  0  0  0  0
 23  1  1  0  0  0  0
 24  4  1  0  0  0  0
 25  5  1  0  0  0  0
 26  6  1  0  0  0  0
 27  7  1  0  0  0  0
 10  9  1  0  0  0  0
 28  9  1  0  0  0  0
 29 10  1  0  0  0  0
 30 10  1  0  0  0  0
 31 10  1  0  0  0  0
 12 11  2  0  0  0  0
 13 11  1  0  0  0  0
 14 13  1  0  0  0  0
 15 14  1  0  0  0  0
 32 14  1  0  0  0  0
 33 14  1  0  0  0  0
 16 15  1  0  0  0  0
 34 15  1  0  0  0  0
 35 15  1  0  0  0  0
 17 16  1  0  0  0  0
 20 16  1  0  0  0  0
 36 16  1  0  0  0  0
 18 17  1  0  0  0  0
 19 17  2  0  0  0  0
 37 18  1  0  0  0  0
 38 18  1  0  0  0  0
 39 20  1  0  0  0  0
 40 20  1  0  0  0  0
  8  3  1  0  0  0  0
 20 13  1  0  0  0  0
M  CHG  1  10   1
M  END
>  <FittedScore>
-36.33

$$$$
