A71EV2A-x5461a_lowest-energy
  FITTED

 40 41     0  0  0  0  0  0  0999 V2000
    9.4156    9.1899   23.4269 C    0  0  0  0  0  0  0  0  0  0  0  0
    8.8250   10.9028   23.5195 S    0  0  0  0  0  0  0  0  0  0  0  0
    7.5606   11.0020   24.7853 C    0  0  0  0  0  0  0  0  0  0  0  0
    7.0384    9.8370   25.3780 C    0  0  0  0  0  0  0  0  0  0  0  0
    6.1237    9.9150   26.4319 C    0  0  0  0  0  0  0  0  0  0  0  0
    5.7262   11.1484   26.9346 C    0  0  0  0  0  0  0  0  0  0  0  0
    6.2086   12.3145   26.3396 C    0  0  0  0  0  0  0  0  0  0  0  0
    7.0796   12.2657   25.2136 C    0  0  0  0  0  0  0  0  0  0  0  0
    7.4099   13.5420   24.3858 C    0  0  0  0  0  0  0  0  0  0  0  0
    6.4411   14.6189   24.6933 N    0  0  0  0  0  0  0  0  0  0  0  0
    8.8219   14.1017   24.5752 C    0  0  0  0  0  0  0  0  0  0  0  0
    9.2429   14.1884   25.7111 O    0  0  0  0  0  0  0  0  0  0  0  0
    9.5491   14.6097   23.5175 N    0  0  0  0  0  0  0  0  0  0  0  0
   10.8527   15.3086   23.6665 C    0  0  0  0  0  0  0  0  0  0  0  0
   11.2974   15.8349   22.2932 C    0  0  0  0  0  0  0  0  0  0  0  0
   10.5153   14.9496   21.3162 C    0  0  0  0  0  0  0  0  0  0  0  0
   10.3226   15.5498   19.9216 C    0  0  0  0  0  0  0  0  0  0  0  0
   10.7348   14.7830   18.8981 N    0  0  0  0  0  0  0  0  0  0  0  0
    9.7707   16.6058   19.6854 O    0  0  0  0  0  0  0  0  0  0  0  0
    9.2201   14.5840   22.0747 C    0  0  0  0  0  0  0  0  0  0  0  0
    8.6194    8.5397   23.0627 H    0  0  0  0  0  0  0  0  0  0  0  0
    9.7707    8.8694   24.4071 H    0  0  0  0  0  0  0  0  0  0  0  0
   10.2478    9.1609   22.7210 H    0  0  0  0  0  0  0  0  0  0  0  0
    7.3345    8.8484   25.0557 H    0  0  0  0  0  0  0  0  0  0  0  0
    5.7326    9.0022   26.8760 H    0  0  0  0  0  0  0  0  0  0  0  0
    5.0406   11.1929   27.7792 H    0  0  0  0  0  0  0  0  0  0  0  0
    5.8751   13.2520   26.7744 H    0  0  0  0  0  0  0  0  0  0  0  0
    7.1996   13.3080   23.3438 H    0  0  0  0  0  0  0  0  0  0  0  0
    6.6113   15.4389   24.0948 H    0  0  0  0  0  0  0  0  0  0  0  0
    6.5402   14.9314   25.6834 H    0  0  0  0  0  0  0  0  0  0  0  0
    5.4700   14.3110   24.5510 H    0  0  0  0  0  0  0  0  0  0  0  0
   11.5993   14.6167   24.0710 H    0  0  0  0  0  0  0  0  0  0  0  0
   10.7548   16.1405   24.3639 H    0  0  0  0  0  0  0  0  0  0  0  0
   12.3771   15.7285   22.1551 H    0  0  0  0  0  0  0  0  0  0  0  0
   11.0421   16.8924   22.1872 H    0  0  0  0  0  0  0  0  0  0  0  0
   11.0940   14.0184   21.2308 H    0  0  0  0  0  0  0  0  0  0  0  0
   10.6497   15.1375   17.9542 H    0  0  0  0  0  0  0  0  0  0  0  0
   11.0343   13.8211   19.0503 H    0  0  0  0  0  0  0  0  0  0  0  0
    8.8892   13.5923   21.7546 H    0  0  0  0  0  0  0  0  0  0  0  0
    8.4161   15.2912   21.8696 H    0  0  0  0  0  0  0  0  0  0  0  0
  9 11  1  0  0  0  0
  8  9  1  0  0  0  0
  7  8  2  0  0  0  0
  6  7  1  0  0  0  0
  5  6  2  0  0  0  0
  4  5  1  0  0  0  0
  3  4  2  0  0  0  0
  2  3  1  0  0  0  0
  1  2  1  0  0  0  0
 21  1  1  0  0  0  0
 22  1  1  0  0  0  0
 23  1  1  0  0  0  0
 24  4  1  0  0  0  0
 25  5  1  0  0  0  0
 26  6  1  0  0  0  0
 27  7  1  0  0  0  0
 10  9  1  0  0  0  0
 28  9  1  0  0  0  0
 29 10  1  0  0  0  0
 30 10  1  0  0  0  0
 31 10  1  0  0  0  0
 12 11  2  0  0  0  0
 13 11  1  0  0  0  0
 14 13  1  0  0  0  0
 15 14  1  0  0  0  0
 32 14  1  0  0  0  0
 33 14  1  0  0  0  0
 16 15  1  0  0  0  0
 34 15  1  0  0  0  0
 35 15  1  0  0  0  0
 17 16  1  0  0  0  0
 20 16  1  0  0  0  0
 36 16  1  0  0  0  0
 18 17  1  0  0  0  0
 19 17  2  0  0  0  0
 37 18  1  0  0  0  0
 38 18  1  0  0  0  0
 39 20  1  0  0  0  0
 40 20  1  0  0  0  0
  8  3  1  0  0  0  0
 20 13  1  0  0  0  0
M  CHG  1  10   1
M  END
>  <FittedScore>
-36.99

$$$$
