A71EV2A-x5366a_best-RMSD
  FITTED

 43 44     0  0  0  0  0  0  0999 V2000
    9.7656   16.9336   19.2933 O    0  0  0  0  0  0  0  0  0  0  0  0
   10.2540   15.8652   19.6166 C    0  0  0  0  0  0  0  0  0  0  0  0
   10.6960   14.9841   18.6947 N    0  0  0  0  0  0  0  0  0  0  0  0
   10.3383   15.3748   21.0623 C    0  0  0  0  0  0  0  0  0  0  0  0
    8.9471   15.2611   21.7553 C    0  0  0  0  0  0  0  0  0  0  0  0
   11.2944   16.2511   21.9092 C    0  0  0  0  0  0  0  0  0  0  0  0
   11.4227   15.6322   23.3230 C    0  0  0  0  0  0  0  0  0  0  0  0
   10.0483   15.3387   24.0194 C    0  0  0  0  0  0  0  0  0  0  0  0
    9.5027   16.6094   24.7294 C    0  0  0  0  0  0  0  0  0  0  0  0
    9.0026   14.6654   23.1403 N    0  0  0  0  0  0  0  0  0  0  0  0
    8.0799   13.7203   23.5675 C    0  0  0  0  0  0  0  0  0  0  0  0
    7.2001   13.3141   22.8231 O    0  0  0  0  0  0  0  0  0  0  0  0
    8.0899   13.2359   25.0321 C    0  0  0  0  0  0  0  0  0  0  0  0
    7.2700   11.9627   25.3005 C    0  0  0  0  0  0  0  0  0  0  0  0
    7.6866   10.6792   24.8499 C    0  0  0  0  0  0  0  0  0  0  0  0
    9.1890   10.5127   23.8767 S    0  0  0  0  0  0  0  0  0  0  0  0
    9.4214    8.7762   23.3770 C    0  0  0  0  0  0  0  0  0  0  0  0
    6.0782   12.0868   26.0455 C    0  0  0  0  0  0  0  0  0  0  0  0
    5.3126   10.9554   26.3605 C    0  0  0  0  0  0  0  0  0  0  0  0
    3.7018   11.1539   27.3584 BR   0  0  0  0  0  0  0  0  0  0  0  0
    5.7379    9.6869   25.9481 C    0  0  0  0  0  0  0  0  0  0  0  0
    6.9059    9.5530   25.1864 C    0  0  0  0  0  0  0  0  0  0  0  0
   10.9581   14.0420   18.9819 H    0  0  0  0  0  0  0  0  0  0  0  0
   10.6892   15.2202   17.7108 H    0  0  0  0  0  0  0  0  0  0  0  0
   10.7556   14.3605   21.0600 H    0  0  0  0  0  0  0  0  0  0  0  0
    8.4659   16.2408   21.8242 H    0  0  0  0  0  0  0  0  0  0  0  0
    8.3148   14.6747   21.0809 H    0  0  0  0  0  0  0  0  0  0  0  0
   10.9316   17.2825   21.9754 H    0  0  0  0  0  0  0  0  0  0  0  0
   12.2800   16.2972   21.4350 H    0  0  0  0  0  0  0  0  0  0  0  0
   12.0436   16.2839   23.9443 H    0  0  0  0  0  0  0  0  0  0  0  0
   11.9822   14.6934   23.2399 H    0  0  0  0  0  0  0  0  0  0  0  0
   10.3447   14.6630   24.8185 H    0  0  0  0  0  0  0  0  0  0  0  0
   10.2334   17.0089   25.4387 H    0  0  0  0  0  0  0  0  0  0  0  0
    8.6004   16.3893   25.3006 H    0  0  0  0  0  0  0  0  0  0  0  0
    9.2640   17.3951   24.0082 H    0  0  0  0  0  0  0  0  0  0  0  0
    9.0945   13.0145   25.3925 H    0  0  0  0  0  0  0  0  0  0  0  0
    7.7382   14.0554   25.6639 H    0  0  0  0  0  0  0  0  0  0  0  0
    9.4968    8.1412   24.2588 H    0  0  0  0  0  0  0  0  0  0  0  0
   10.3587    8.7040   22.8250 H    0  0  0  0  0  0  0  0  0  0  0  0
    8.6107    8.4386   22.7268 H    0  0  0  0  0  0  0  0  0  0  0  0
    5.7569   13.0693   26.3857 H    0  0  0  0  0  0  0  0  0  0  0  0
    5.1731    8.7935   26.2112 H    0  0  0  0  0  0  0  0  0  0  0  0
    7.1870    8.5509   24.8788 H    0  0  0  0  0  0  0  0  0  0  0  0
 10 11  1  0  0  0  0
  5 10  1  0  0  0  0
  4  5  1  0  0  0  0
  2  4  1  0  0  0  0
  1  2  2  0  0  0  0
  3  2  1  0  0  0  0
 23  3  1  0  0  0  0
 24  3  1  0  0  0  0
 25  4  1  0  0  0  0
 26  5  1  0  0  0  0
 27  5  1  0  0  0  0
  6  4  1  0  0  0  0
 28  6  1  0  0  0  0
 29  6  1  0  0  0  0
  7  6  1  0  0  0  0
 30  7  1  0  0  0  0
 31  7  1  0  0  0  0
  8  7  1  0  0  0  0
  9  8  1  0  0  0  0
 32  8  1  0  0  0  0
 33  9  1  0  0  0  0
 34  9  1  0  0  0  0
 35  9  1  0  0  0  0
 12 11  2  0  0  0  0
 13 11  1  0  0  0  0
 36 13  1  0  0  0  0
 37 13  1  0  0  0  0
 14 13  1  0  0  0  0
 15 14  1  0  0  0  0
 22 15  2  0  0  0  0
 16 15  1  0  0  0  0
 17 16  1  0  0  0  0
 38 17  1  0  0  0  0
 39 17  1  0  0  0  0
 40 17  1  0  0  0  0
 18 14  2  0  0  0  0
 41 18  1  0  0  0  0
 19 18  1  0  0  0  0
 20 19  1  0  0  0  0
 21 19  2  0  0  0  0
 42 21  1  0  0  0  0
 43 22  1  0  0  0  0
 10  8  1  0  0  0  0
 22 21  1  0  0  0  0
M  END
>  <FittedScore>
-32.19

$$$$
