A71EV2A-x3306a_best-RMSD
  FITTED

 34 36     0  0  0  0  0  0  0999 V2000
    9.5966   14.2892   25.0321 O    0  0  0  0  0  0  0  0  0  0  0  0
   10.0174   13.4012   24.3139 C    0  0  0  0  0  0  0  0  0  0  0  0
    9.4436   12.0860   24.3614 C    0  0  0  0  0  0  0  0  0  0  0  0
    9.8592   11.0554   23.6794 N    0  0  0  0  0  0  0  0  0  0  0  0
    8.3128   11.5976   25.2113 C    0  0  0  0  0  0  0  0  0  0  0  0
    8.2047   10.2421   24.9626 C    0  0  0  0  0  0  0  0  0  0  0  0
    7.2479    9.4381   25.5962 C    0  0  0  0  0  0  0  0  0  0  0  0
    6.3910   10.0455   26.5289 C    0  0  0  0  0  0  0  0  0  0  0  0
    6.4909   11.4289   26.7909 C    0  0  0  0  0  0  0  0  0  0  0  0
    7.4531   12.2222   26.1300 C    0  0  0  0  0  0  0  0  0  0  0  0
    9.1623    9.9454   24.0497 N    0  0  0  0  0  0  0  0  0  0  0  0
    9.3846    8.6727   23.3610 C    0  0  0  0  0  0  0  0  0  0  0  0
   11.1167   13.5488   23.5151 N    0  0  0  0  0  0  0  0  0  0  0  0
   12.0570   14.6892   23.5011 C    0  0  0  0  0  0  0  0  0  0  0  0
   12.2679   15.3329   22.1085 C    0  0  0  0  0  0  0  0  0  0  0  0
   11.0333   15.6829   21.2932 C    0  0  0  0  0  0  0  0  0  0  0  0
   11.0102   15.4807   19.8310 N    0  0  0  0  0  0  0  0  0  0  0  0
    9.7250   16.0197   19.3705 C    0  0  0  0  0  0  0  0  0  0  0  0
    8.6569   16.6308   20.6327 S    0  0  0  0  0  0  0  0  0  0  0  0
    9.8910   16.2750   21.8253 C    0  0  0  0  0  0  0  0  0  0  0  0
    7.1726    8.3744   25.3839 H    0  0  0  0  0  0  0  0  0  0  0  0
    5.6497    9.4442   27.0496 H    0  0  0  0  0  0  0  0  0  0  0  0
    5.8243   11.8904   27.5129 H    0  0  0  0  0  0  0  0  0  0  0  0
    7.5222   13.2868   26.3388 H    0  0  0  0  0  0  0  0  0  0  0  0
    8.7135    8.5699   22.5066 H    0  0  0  0  0  0  0  0  0  0  0  0
    9.2181    7.8180   24.0193 H    0  0  0  0  0  0  0  0  0  0  0  0
   10.4095    8.5806   22.9910 H    0  0  0  0  0  0  0  0  0  0  0  0
   11.3923   12.7423   22.9739 H    0  0  0  0  0  0  0  0  0  0  0  0
   13.0216   14.3204   23.8599 H    0  0  0  0  0  0  0  0  0  0  0  0
   11.7525   15.4686   24.2049 H    0  0  0  0  0  0  0  0  0  0  0  0
   12.9075   14.6715   21.5193 H    0  0  0  0  0  0  0  0  0  0  0  0
   12.8426   16.2533   22.2416 H    0  0  0  0  0  0  0  0  0  0  0  0
    9.4698   16.0189   18.3140 H    0  0  0  0  0  0  0  0  0  0  0  0
    9.7628   16.5103   22.8791 H    0  0  0  0  0  0  0  0  0  0  0  0
  3  2  1  0  0  0  0
  4  3  2  0  0  0  0
 11  4  1  0  0  0  0
  1  2  2  0  0  0  0
  5  3  1  0  0  0  0
 10  5  2  0  0  0  0
  6  5  1  0  0  0  0
  7  6  2  0  0  0  0
 21  7  1  0  0  0  0
  8  7  1  0  0  0  0
 22  8  1  0  0  0  0
  9  8  2  0  0  0  0
 23  9  1  0  0  0  0
 24 10  1  0  0  0  0
 12 11  1  0  0  0  0
 25 12  1  0  0  0  0
 26 12  1  0  0  0  0
 27 12  1  0  0  0  0
 13  2  1  0  0  0  0
 28 13  1  0  0  0  0
 14 13  1  0  0  0  0
 29 14  1  0  0  0  0
 30 14  1  0  0  0  0
 15 14  1  0  0  0  0
 31 15  1  0  0  0  0
 32 15  1  0  0  0  0
 16 15  1  0  0  0  0
 20 16  2  0  0  0  0
 17 16  1  0  0  0  0
 18 17  2  0  0  0  0
 33 18  1  0  0  0  0
 19 18  1  0  0  0  0
 34 20  1  0  0  0  0
 10  9  1  0  0  0  0
 11  6  1  0  0  0  0
 20 19  1  0  0  0  0
M  END
>  <FittedScore>
-26.89

$$$$
