A71EV2A-x3306a_lowest-energy
  FITTED

 34 36     0  0  0  0  0  0  0999 V2000
    9.5060   13.9733   25.5069 O    0  0  0  0  0  0  0  0  0  0  0  0
    9.9151   13.2009   24.6588 C    0  0  0  0  0  0  0  0  0  0  0  0
    9.3611   11.8819   24.5405 C    0  0  0  0  0  0  0  0  0  0  0  0
    9.7708   10.9447   23.7290 N    0  0  0  0  0  0  0  0  0  0  0  0
    8.2404   11.2980   25.3366 C    0  0  0  0  0  0  0  0  0  0  0  0
    8.1115    9.9947   24.9061 C    0  0  0  0  0  0  0  0  0  0  0  0
    7.1636    9.1202   25.4506 C    0  0  0  0  0  0  0  0  0  0  0  0
    6.3426    9.5980   26.4853 C    0  0  0  0  0  0  0  0  0  0  0  0
    6.4640   10.9290   26.9334 C    0  0  0  0  0  0  0  0  0  0  0  0
    7.4107   11.7977   26.3545 C    0  0  0  0  0  0  0  0  0  0  0  0
    9.0419    9.8093   23.9375 N    0  0  0  0  0  0  0  0  0  0  0  0
    9.4395    8.5402   23.3252 C    0  0  0  0  0  0  0  0  0  0  0  0
   10.9680   13.4862   23.8393 N    0  0  0  0  0  0  0  0  0  0  0  0
   11.8035   14.7010   23.8883 C    0  0  0  0  0  0  0  0  0  0  0  0
   12.4069   15.1072   22.5263 C    0  0  0  0  0  0  0  0  0  0  0  0
   11.4533   15.3871   21.3718 C    0  0  0  0  0  0  0  0  0  0  0  0
   11.7617   14.9226   20.0068 N    0  0  0  0  0  0  0  0  0  0  0  0
   10.7510   15.5194   19.1274 C    0  0  0  0  0  0  0  0  0  0  0  0
    9.4712   16.4220   19.9382 S    0  0  0  0  0  0  0  0  0  0  0  0
   10.3142   16.1833   21.4670 C    0  0  0  0  0  0  0  0  0  0  0  0
    7.0754    8.0955   25.0983 H    0  0  0  0  0  0  0  0  0  0  0  0
    5.6140    8.9336   26.9424 H    0  0  0  0  0  0  0  0  0  0  0  0
    5.8320   11.2874   27.7403 H    0  0  0  0  0  0  0  0  0  0  0  0
    7.4919   12.8225   26.7017 H    0  0  0  0  0  0  0  0  0  0  0  0
    8.6039    8.0752   22.7944 H    0  0  0  0  0  0  0  0  0  0  0  0
    9.7799    7.8328   24.0851 H    0  0  0  0  0  0  0  0  0  0  0  0
   10.2582    8.6525   22.6096 H    0  0  0  0  0  0  0  0  0  0  0  0
   11.2712   12.7554   23.2080 H    0  0  0  0  0  0  0  0  0  0  0  0
   12.6160   14.5265   24.5995 H    0  0  0  0  0  0  0  0  0  0  0  0
   11.2310   15.5472   24.2814 H    0  0  0  0  0  0  0  0  0  0  0  0
   13.1096   14.3256   22.2221 H    0  0  0  0  0  0  0  0  0  0  0  0
   13.0131   16.0047   22.6795 H    0  0  0  0  0  0  0  0  0  0  0  0
   10.8204   15.4121   18.0471 H    0  0  0  0  0  0  0  0  0  0  0  0
    9.9684   16.6330   22.3927 H    0  0  0  0  0  0  0  0  0  0  0  0
  3  2  1  0  0  0  0
  4  3  2  0  0  0  0
 11  4  1  0  0  0  0
  1  2  2  0  0  0  0
  5  3  1  0  0  0  0
 10  5  2  0  0  0  0
  6  5  1  0  0  0  0
  7  6  2  0  0  0  0
 21  7  1  0  0  0  0
  8  7  1  0  0  0  0
 22  8  1  0  0  0  0
  9  8  2  0  0  0  0
 23  9  1  0  0  0  0
 24 10  1  0  0  0  0
 12 11  1  0  0  0  0
 25 12  1  0  0  0  0
 26 12  1  0  0  0  0
 27 12  1  0  0  0  0
 13  2  1  0  0  0  0
 28 13  1  0  0  0  0
 14 13  1  0  0  0  0
 29 14  1  0  0  0  0
 30 14  1  0  0  0  0
 15 14  1  0  0  0  0
 31 15  1  0  0  0  0
 32 15  1  0  0  0  0
 16 15  1  0  0  0  0
 20 16  2  0  0  0  0
 17 16  1  0  0  0  0
 18 17  2  0  0  0  0
 33 18  1  0  0  0  0
 19 18  1  0  0  0  0
 34 20  1  0  0  0  0
 10  9  1  0  0  0  0
 11  6  1  0  0  0  0
 20 19  1  0  0  0  0
M  END
>  <FittedScore>
-24.06

$$$$
