A71EV2A-x6776a_lowest-energy
  FITTED

 53 54     0  0  0  0  0  0  0999 V2000
    8.9527    8.6253   23.6498 C    0  0  0  0  0  0  0  0  0  0  0  0
    8.9160   10.4223   23.8497 S    0  0  0  0  0  0  0  0  0  0  0  0
    7.4694   10.8662   24.8201 C    0  0  0  0  0  0  0  0  0  0  0  0
    6.8920    9.9366   25.7105 C    0  0  0  0  0  0  0  0  0  0  0  0
    5.8750   10.3170   26.5942 C    0  0  0  0  0  0  0  0  0  0  0  0
    5.4257   11.6371   26.6058 C    0  0  0  0  0  0  0  0  0  0  0  0
    5.9657   12.5676   25.7092 C    0  0  0  0  0  0  0  0  0  0  0  0
    6.9466   12.1894   24.7618 C    0  0  0  0  0  0  0  0  0  0  0  0
    7.4694   13.2180   23.7190 C    0  0  0  0  0  0  0  0  0  0  0  0
    6.4507   14.2547   23.4044 N    0  0  0  0  0  0  0  0  0  0  0  0
    5.5691   14.2520   22.3734 C    0  0  0  0  0  0  0  0  0  0  0  0
    5.6514   13.4631   21.4560 O    0  0  0  0  0  0  0  0  0  0  0  0
    4.5001   15.3437   22.3808 C    0  0  0  0  0  0  0  0  0  0  0  0
    3.0668   14.7881   22.4151 N    0  0  0  0  0  0  0  0  0  0  0  0
    2.1108   15.7846   23.0639 C    0  0  0  0  0  0  0  0  0  0  0  0
    2.5332   14.3766   21.0379 C    0  0  0  0  0  0  0  0  0  0  0  0
    8.8062   13.8700   24.1227 C    0  0  0  0  0  0  0  0  0  0  0  0
    9.3455   13.5731   25.1730 O    0  0  0  0  0  0  0  0  0  0  0  0
    9.4239   14.7342   23.2490 N    0  0  0  0  0  0  0  0  0  0  0  0
   10.6528   15.5124   23.5455 C    0  0  0  0  0  0  0  0  0  0  0  0
   11.1813   16.1089   22.2216 C    0  0  0  0  0  0  0  0  0  0  0  0
   10.5026   15.2064   21.1801 C    0  0  0  0  0  0  0  0  0  0  0  0
   10.4049   15.7401   19.7611 C    0  0  0  0  0  0  0  0  0  0  0  0
   10.6260   14.8162   18.8061 N    0  0  0  0  0  0  0  0  0  0  0  0
    9.8640   16.7930   19.4843 O    0  0  0  0  0  0  0  0  0  0  0  0
    9.1360   14.9157   21.8130 C    0  0  0  0  0  0  0  0  0  0  0  0
    9.7232    8.3560   22.9228 H    0  0  0  0  0  0  0  0  0  0  0  0
    7.9836    8.2619   23.3014 H    0  0  0  0  0  0  0  0  0  0  0  0
    9.2154    8.1670   24.6070 H    0  0  0  0  0  0  0  0  0  0  0  0
    7.2453    8.9164   25.7679 H    0  0  0  0  0  0  0  0  0  0  0  0
    5.4554    9.5942   27.2923 H    0  0  0  0  0  0  0  0  0  0  0  0
    4.6520   11.9575   27.2966 H    0  0  0  0  0  0  0  0  0  0  0  0
    5.5954   13.5883   25.7649 H    0  0  0  0  0  0  0  0  0  0  0  0
    7.6456   12.6624   22.7974 H    0  0  0  0  0  0  0  0  0  0  0  0
    6.4178   15.0406   24.0508 H    0  0  0  0  0  0  0  0  0  0  0  0
    4.6254   15.9899   21.5073 H    0  0  0  0  0  0  0  0  0  0  0  0
    4.6483   16.0011   23.2433 H    0  0  0  0  0  0  0  0  0  0  0  0
    3.0738   13.9391   23.0284 H    0  0  0  0  0  0  0  0  0  0  0  0
    1.1077   15.3607   23.1103 H    0  0  0  0  0  0  0  0  0  0  0  0
    2.0871   16.7196   22.4989 H    0  0  0  0  0  0  0  0  0  0  0  0
    2.4201   15.9965   24.0893 H    0  0  0  0  0  0  0  0  0  0  0  0
    3.1552   13.6060   20.5840 H    0  0  0  0  0  0  0  0  0  0  0  0
    2.4769   15.2345   20.3659 H    0  0  0  0  0  0  0  0  0  0  0  0
    1.5364   13.9538   21.1478 H    0  0  0  0  0  0  0  0  0  0  0  0
   11.4123   14.8604   23.9905 H    0  0  0  0  0  0  0  0  0  0  0  0
   10.4286   16.3059   24.2646 H    0  0  0  0  0  0  0  0  0  0  0  0
   12.2713   16.0505   22.1598 H    0  0  0  0  0  0  0  0  0  0  0  0
   10.8846   17.1600   22.1141 H    0  0  0  0  0  0  0  0  0  0  0  0
   11.0708   14.2650   21.1718 H    0  0  0  0  0  0  0  0  0  0  0  0
   10.5653   15.0678   17.8295 H    0  0  0  0  0  0  0  0  0  0  0  0
   10.7392   13.8336   19.0519 H    0  0  0  0  0  0  0  0  0  0  0  0
    8.7124   14.0326   21.3347 H    0  0  0  0  0  0  0  0  0  0  0  0
    8.4311   15.7454   21.6769 H    0  0  0  0  0  0  0  0  0  0  0  0
  8  9  1  0  0  0  0
  7  8  2  0  0  0  0
  6  7  1  0  0  0  0
  5  6  2  0  0  0  0
  4  5  1  0  0  0  0
  3  4  2  0  0  0  0
  2  3  1  0  0  0  0
  1  2  1  0  0  0  0
 27  1  1  0  0  0  0
 28  1  1  0  0  0  0
 29  1  1  0  0  0  0
 30  4  1  0  0  0  0
 31  5  1  0  0  0  0
 32  6  1  0  0  0  0
 33  7  1  0  0  0  0
 10  9  1  0  0  0  0
 17  9  1  0  0  0  0
 34  9  1  0  0  0  0
 11 10  1  0  0  0  0
 35 10  1  0  0  0  0
 12 11  2  0  0  0  0
 13 11  1  0  0  0  0
 14 13  1  0  0  0  0
 36 13  1  0  0  0  0
 37 13  1  0  0  0  0
 15 14  1  0  0  0  0
 16 14  1  0  0  0  0
 38 14  1  0  0  0  0
 39 15  1  0  0  0  0
 40 15  1  0  0  0  0
 41 15  1  0  0  0  0
 42 16  1  0  0  0  0
 43 16  1  0  0  0  0
 44 16  1  0  0  0  0
 18 17  2  0  0  0  0
 19 17  1  0  0  0  0
 20 19  1  0  0  0  0
 21 20  1  0  0  0  0
 45 20  1  0  0  0  0
 46 20  1  0  0  0  0
 22 21  1  0  0  0  0
 47 21  1  0  0  0  0
 48 21  1  0  0  0  0
 23 22  1  0  0  0  0
 26 22  1  0  0  0  0
 49 22  1  0  0  0  0
 24 23  1  0  0  0  0
 25 23  2  0  0  0  0
 50 24  1  0  0  0  0
 51 24  1  0  0  0  0
 52 26  1  0  0  0  0
 53 26  1  0  0  0  0
  8  3  1  0  0  0  0
 26 19  1  0  0  0  0
M  CHG  1  14   1
M  END
>  <FittedScore>
-38.68

$$$$
