A71EV2A-x6776a_best-RMSD
  FITTED

 53 54     0  0  0  0  0  0  0999 V2000
    8.9657    8.5638   23.4438 C    0  0  0  0  0  0  0  0  0  0  0  0
    9.0151   10.3270   23.8220 S    0  0  0  0  0  0  0  0  0  0  0  0
    7.5671   10.7350   24.7973 C    0  0  0  0  0  0  0  0  0  0  0  0
    6.9461    9.7398   25.5817 C    0  0  0  0  0  0  0  0  0  0  0  0
    5.9114   10.0605   26.4653 C    0  0  0  0  0  0  0  0  0  0  0  0
    5.4968   11.3863   26.5958 C    0  0  0  0  0  0  0  0  0  0  0  0
    6.0758   12.3797   25.7974 C    0  0  0  0  0  0  0  0  0  0  0  0
    7.0685   12.0663   24.8342 C    0  0  0  0  0  0  0  0  0  0  0  0
    7.5677   13.1311   23.8092 C    0  0  0  0  0  0  0  0  0  0  0  0
    6.5322   14.1648   23.5592 N    0  0  0  0  0  0  0  0  0  0  0  0
    5.6277   14.1743   22.5496 C    0  0  0  0  0  0  0  0  0  0  0  0
    5.7201   13.4428   21.5822 O    0  0  0  0  0  0  0  0  0  0  0  0
    4.4466   15.1201   22.7555 C    0  0  0  0  0  0  0  0  0  0  0  0
    3.1922   14.7086   21.9750 N    0  0  0  0  0  0  0  0  0  0  0  0
    1.9045   15.1225   22.6685 C    0  0  0  0  0  0  0  0  0  0  0  0
    3.1899   15.2130   20.5310 C    0  0  0  0  0  0  0  0  0  0  0  0
    8.9271   13.7689   24.1510 C    0  0  0  0  0  0  0  0  0  0  0  0
    9.4582   13.5404   25.2221 O    0  0  0  0  0  0  0  0  0  0  0  0
    9.5844   14.5292   23.2056 N    0  0  0  0  0  0  0  0  0  0  0  0
   10.8689   15.2324   23.4417 C    0  0  0  0  0  0  0  0  0  0  0  0
   11.3029   15.9149   22.1280 C    0  0  0  0  0  0  0  0  0  0  0  0
   10.5720   15.0936   21.0610 C    0  0  0  0  0  0  0  0  0  0  0  0
   10.4233   15.7598   19.6910 C    0  0  0  0  0  0  0  0  0  0  0  0
   11.2465   15.3339   18.7001 N    0  0  0  0  0  0  0  0  0  0  0  0
    9.6480   16.6699   19.4751 O    0  0  0  0  0  0  0  0  0  0  0  0
    9.2476   14.7120   21.7698 C    0  0  0  0  0  0  0  0  0  0  0  0
    7.9911    8.2869   23.0368 H    0  0  0  0  0  0  0  0  0  0  0  0
    9.1862    7.9789   24.3417 H    0  0  0  0  0  0  0  0  0  0  0  0
    9.7294    8.3664   22.6955 H    0  0  0  0  0  0  0  0  0  0  0  0
    7.2625    8.7060   25.5504 H    0  0  0  0  0  0  0  0  0  0  0  0
    5.4406    9.2828   27.0608 H    0  0  0  0  0  0  0  0  0  0  0  0
    4.7081   11.6480   27.2956 H    0  0  0  0  0  0  0  0  0  0  0  0
    5.7136   13.3990   25.9214 H    0  0  0  0  0  0  0  0  0  0  0  0
    7.7135   12.5910   22.8767 H    0  0  0  0  0  0  0  0  0  0  0  0
    6.4483   14.8963   24.2595 H    0  0  0  0  0  0  0  0  0  0  0  0
    4.7296   16.1480   22.5015 H    0  0  0  0  0  0  0  0  0  0  0  0
    4.1980   15.1234   23.8264 H    0  0  0  0  0  0  0  0  0  0  0  0
    3.1696   13.6719   21.9605 H    0  0  0  0  0  0  0  0  0  0  0  0
    1.0434   14.7742   22.0953 H    0  0  0  0  0  0  0  0  0  0  0  0
    1.8558   16.2091   22.7867 H    0  0  0  0  0  0  0  0  0  0  0  0
    1.8667   14.6425   23.6527 H    0  0  0  0  0  0  0  0  0  0  0  0
    4.0889   14.8866   20.0054 H    0  0  0  0  0  0  0  0  0  0  0  0
    3.1596   16.3065   20.5057 H    0  0  0  0  0  0  0  0  0  0  0  0
    2.3211   14.8214   19.9892 H    0  0  0  0  0  0  0  0  0  0  0  0
   11.6323   14.5140   23.7594 H    0  0  0  0  0  0  0  0  0  0  0  0
   10.7493   15.9780   24.2330 H    0  0  0  0  0  0  0  0  0  0  0  0
   12.3909   15.8766   21.9978 H    0  0  0  0  0  0  0  0  0  0  0  0
   10.9786   16.9628   22.1137 H    0  0  0  0  0  0  0  0  0  0  0  0
   11.1263   14.1562   20.9285 H    0  0  0  0  0  0  0  0  0  0  0  0
   10.9577   15.4801   17.7383 H    0  0  0  0  0  0  0  0  0  0  0  0
   12.0253   14.7012   18.8673 H    0  0  0  0  0  0  0  0  0  0  0  0
    8.8560   13.7966   21.3144 H    0  0  0  0  0  0  0  0  0  0  0  0
    8.4839   15.4905   21.6721 H    0  0  0  0  0  0  0  0  0  0  0  0
  8  9  1  0  0  0  0
  7  8  2  0  0  0  0
  6  7  1  0  0  0  0
  5  6  2  0  0  0  0
  4  5  1  0  0  0  0
  3  4  2  0  0  0  0
  2  3  1  0  0  0  0
  1  2  1  0  0  0  0
 27  1  1  0  0  0  0
 28  1  1  0  0  0  0
 29  1  1  0  0  0  0
 30  4  1  0  0  0  0
 31  5  1  0  0  0  0
 32  6  1  0  0  0  0
 33  7  1  0  0  0  0
 10  9  1  0  0  0  0
 17  9  1  0  0  0  0
 34  9  1  0  0  0  0
 11 10  1  0  0  0  0
 35 10  1  0  0  0  0
 12 11  2  0  0  0  0
 13 11  1  0  0  0  0
 14 13  1  0  0  0  0
 36 13  1  0  0  0  0
 37 13  1  0  0  0  0
 15 14  1  0  0  0  0
 16 14  1  0  0  0  0
 38 14  1  0  0  0  0
 39 15  1  0  0  0  0
 40 15  1  0  0  0  0
 41 15  1  0  0  0  0
 42 16  1  0  0  0  0
 43 16  1  0  0  0  0
 44 16  1  0  0  0  0
 18 17  2  0  0  0  0
 19 17  1  0  0  0  0
 20 19  1  0  0  0  0
 21 20  1  0  0  0  0
 45 20  1  0  0  0  0
 46 20  1  0  0  0  0
 22 21  1  0  0  0  0
 47 21  1  0  0  0  0
 48 21  1  0  0  0  0
 23 22  1  0  0  0  0
 26 22  1  0  0  0  0
 49 22  1  0  0  0  0
 24 23  1  0  0  0  0
 25 23  2  0  0  0  0
 50 24  1  0  0  0  0
 51 24  1  0  0  0  0
 52 26  1  0  0  0  0
 53 26  1  0  0  0  0
  8  3  1  0  0  0  0
 26 19  1  0  0  0  0
M  CHG  1  14   1
M  END
>  <FittedScore>
-36.37

$$$$
