A71EV2A-x5359a_best-RMSD
  FITTED

 41 42     0  0  0  0  0  0  0999 V2000
    9.8140   16.9028   19.0724 O    0  0  0  0  0  0  0  0  0  0  0  0
   10.3345   15.8875   19.5052 C    0  0  0  0  0  0  0  0  0  0  0  0
   10.6586   14.8806   18.6738 N    0  0  0  0  0  0  0  0  0  0  0  0
   10.3701   15.5225   20.9803 C    0  0  0  0  0  0  0  0  0  0  0  0
   11.1863   16.5582   21.8050 C    0  0  0  0  0  0  0  0  0  0  0  0
   11.1610   16.1816   23.3078 C    0  0  0  0  0  0  0  0  0  0  0  0
    9.7090   15.9800   23.8291 C    0  0  0  0  0  0  0  0  0  0  0  0
    8.9256   15.3301   21.5385 C    0  0  0  0  0  0  0  0  0  0  0  0
    8.9410   15.0183   22.9860 N    0  0  0  0  0  0  0  0  0  0  0  0
    7.7208   14.0402   23.6940 S    0  0  0  0  0  0  0  0  0  0  0  0
    6.9033   14.9000   24.5108 O    0  0  0  0  0  0  0  0  0  0  0  0
    7.0601   13.2345   22.6969 O    0  0  0  0  0  0  0  0  0  0  0  0
    8.6823   12.9474   24.7528 C    0  0  0  0  0  0  0  0  0  0  0  0
    7.8448   11.7651   25.2601 C    0  0  0  0  0  0  0  0  0  0  0  0
    7.9947   10.4242   24.7997 C    0  0  0  0  0  0  0  0  0  0  0  0
    9.0019   10.0590   23.7373 C    0  0  0  0  0  0  0  0  0  0  0  0
    9.5206    8.8357   23.6271 C    0  0  0  0  0  0  0  0  0  0  0  0
    6.8839   12.0542   26.2531 C    0  0  0  0  0  0  0  0  0  0  0  0
    6.0535   11.0584   26.7703 C    0  0  0  0  0  0  0  0  0  0  0  0
    6.1718    9.7488   26.3020 C    0  0  0  0  0  0  0  0  0  0  0  0
    7.1259    9.4387   25.3275 C    0  0  0  0  0  0  0  0  0  0  0  0
   10.5874   15.0274   17.6779 H    0  0  0  0  0  0  0  0  0  0  0  0
   10.8303   13.9336   19.0194 H    0  0  0  0  0  0  0  0  0  0  0  0
   10.8864   14.5606   21.0877 H    0  0  0  0  0  0  0  0  0  0  0  0
   12.2194   16.5899   21.4463 H    0  0  0  0  0  0  0  0  0  0  0  0
   10.7711   17.5617   21.6727 H    0  0  0  0  0  0  0  0  0  0  0  0
   11.7396   15.2665   23.4686 H    0  0  0  0  0  0  0  0  0  0  0  0
   11.6504   16.9678   23.8863 H    0  0  0  0  0  0  0  0  0  0  0  0
    9.7789   15.6557   24.8682 H    0  0  0  0  0  0  0  0  0  0  0  0
    9.1991   16.9474   23.8601 H    0  0  0  0  0  0  0  0  0  0  0  0
    8.4514   14.5364   20.9529 H    0  0  0  0  0  0  0  0  0  0  0  0
    8.3280   16.2300   21.3615 H    0  0  0  0  0  0  0  0  0  0  0  0
    9.5817   12.6491   24.2126 H    0  0  0  0  0  0  0  0  0  0  0  0
    9.0424   13.5171   25.6124 H    0  0  0  0  0  0  0  0  0  0  0  0
    9.3440   10.7827   23.0023 H    0  0  0  0  0  0  0  0  0  0  0  0
    9.2708    8.0225   24.3035 H    0  0  0  0  0  0  0  0  0  0  0  0
   10.2476    8.6221   22.8482 H    0  0  0  0  0  0  0  0  0  0  0  0
    6.7733   13.0679   26.6337 H    0  0  0  0  0  0  0  0  0  0  0  0
    5.3192   11.3031   27.5317 H    0  0  0  0  0  0  0  0  0  0  0  0
    5.5267    8.9703   26.7015 H    0  0  0  0  0  0  0  0  0  0  0  0
    7.1729    8.4086   24.9838 H    0  0  0  0  0  0  0  0  0  0  0  0
  9 10  1  0  0  0  0
  7  9  1  0  0  0  0
  6  7  1  0  0  0  0
  5  6  1  0  0  0  0
  4  5  1  0  0  0  0
  2  4  1  0  0  0  0
  1  2  2  0  0  0  0
  3  2  1  0  0  0  0
 22  3  1  0  0  0  0
 23  3  1  0  0  0  0
 24  4  1  0  0  0  0
 25  5  1  0  0  0  0
 26  5  1  0  0  0  0
 27  6  1  0  0  0  0
 28  6  1  0  0  0  0
 29  7  1  0  0  0  0
 30  7  1  0  0  0  0
  8  4  1  0  0  0  0
 31  8  1  0  0  0  0
 32  8  1  0  0  0  0
 11 10  2  0  0  0  0
 12 10  2  0  0  0  0
 13 10  1  0  0  0  0
 33 13  1  0  0  0  0
 34 13  1  0  0  0  0
 14 13  1  0  0  0  0
 15 14  1  0  0  0  0
 21 15  2  0  0  0  0
 16 15  1  0  0  0  0
 35 16  1  0  0  0  0
 17 16  2  0  0  0  0
 36 17  1  0  0  0  0
 37 17  1  0  0  0  0
 18 14  2  0  0  0  0
 38 18  1  0  0  0  0
 19 18  1  0  0  0  0
 39 19  1  0  0  0  0
 20 19  2  0  0  0  0
 40 20  1  0  0  0  0
 41 21  1  0  0  0  0
  9  8  1  0  0  0  0
 21 20  1  0  0  0  0
M  END
>  <FittedScore>
-36.10

$$$$
