A71EV2A-x5359a_lowest-energy
  FITTED

 41 42     0  0  0  0  0  0  0999 V2000
    9.7695   16.8799   19.0668 O    0  0  0  0  0  0  0  0  0  0  0  0
   10.2503   15.8616   19.5300 C    0  0  0  0  0  0  0  0  0  0  0  0
   10.6445   14.8634   18.7122 N    0  0  0  0  0  0  0  0  0  0  0  0
   10.2293   15.5223   21.0245 C    0  0  0  0  0  0  0  0  0  0  0  0
   11.0349   16.5676   21.8530 C    0  0  0  0  0  0  0  0  0  0  0  0
   10.9307   16.2809   23.3767 C    0  0  0  0  0  0  0  0  0  0  0  0
    9.4600   16.0938   23.8425 C    0  0  0  0  0  0  0  0  0  0  0  0
    8.7659   15.3848   21.5498 C    0  0  0  0  0  0  0  0  0  0  0  0
    8.7378   15.0958   23.0045 N    0  0  0  0  0  0  0  0  0  0  0  0
    7.5359   14.0973   23.7108 S    0  0  0  0  0  0  0  0  0  0  0  0
    6.6443   14.9559   24.4421 O    0  0  0  0  0  0  0  0  0  0  0  0
    6.9618   13.2176   22.7239 O    0  0  0  0  0  0  0  0  0  0  0  0
    8.4660   13.0972   24.8785 C    0  0  0  0  0  0  0  0  0  0  0  0
    7.6519   11.8943   25.3838 C    0  0  0  0  0  0  0  0  0  0  0  0
    7.8470   10.5561   24.9310 C    0  0  0  0  0  0  0  0  0  0  0  0
    8.8374   10.2397   23.8361 C    0  0  0  0  0  0  0  0  0  0  0  0
    9.3722    9.0335   23.6629 C    0  0  0  0  0  0  0  0  0  0  0  0
    6.6653   12.1598   26.3568 C    0  0  0  0  0  0  0  0  0  0  0  0
    5.8646   11.1364   26.8729 C    0  0  0  0  0  0  0  0  0  0  0  0
    6.0440    9.8259   26.4267 C    0  0  0  0  0  0  0  0  0  0  0  0
    7.0174    9.5396   25.4602 C    0  0  0  0  0  0  0  0  0  0  0  0
   10.8445   13.9396   19.0891 H    0  0  0  0  0  0  0  0  0  0  0  0
   10.5701   14.9723   17.7040 H    0  0  0  0  0  0  0  0  0  0  0  0
   10.7204   14.5539   21.1778 H    0  0  0  0  0  0  0  0  0  0  0  0
   12.0858   16.5594   21.5446 H    0  0  0  0  0  0  0  0  0  0  0  0
   10.6572   17.5773   21.6550 H    0  0  0  0  0  0  0  0  0  0  0  0
   11.5114   15.3873   23.6240 H    0  0  0  0  0  0  0  0  0  0  0  0
   11.3788   17.1132   23.9279 H    0  0  0  0  0  0  0  0  0  0  0  0
    9.4809   15.8154   24.8968 H    0  0  0  0  0  0  0  0  0  0  0  0
    8.9432   17.0577   23.8140 H    0  0  0  0  0  0  0  0  0  0  0  0
    8.2830   14.5967   20.9690 H    0  0  0  0  0  0  0  0  0  0  0  0
    8.1963   16.2947   21.3381 H    0  0  0  0  0  0  0  0  0  0  0  0
    9.4119   12.8105   24.4173 H    0  0  0  0  0  0  0  0  0  0  0  0
    8.7446   13.7228   25.7307 H    0  0  0  0  0  0  0  0  0  0  0  0
    9.1427   10.9994   23.1219 H    0  0  0  0  0  0  0  0  0  0  0  0
    9.1622    8.1966   24.3222 H    0  0  0  0  0  0  0  0  0  0  0  0
   10.0625    8.8601   22.8423 H    0  0  0  0  0  0  0  0  0  0  0  0
    6.5055   13.1770   26.7097 H    0  0  0  0  0  0  0  0  0  0  0  0
    5.1046   11.3657   27.6161 H    0  0  0  0  0  0  0  0  0  0  0  0
    5.4202    9.0260   26.8213 H    0  0  0  0  0  0  0  0  0  0  0  0
    7.0999    8.5123   25.1154 H    0  0  0  0  0  0  0  0  0  0  0  0
  9 10  1  0  0  0  0
  7  9  1  0  0  0  0
  6  7  1  0  0  0  0
  5  6  1  0  0  0  0
  4  5  1  0  0  0  0
  2  4  1  0  0  0  0
  1  2  2  0  0  0  0
  3  2  1  0  0  0  0
 22  3  1  0  0  0  0
 23  3  1  0  0  0  0
 24  4  1  0  0  0  0
 25  5  1  0  0  0  0
 26  5  1  0  0  0  0
 27  6  1  0  0  0  0
 28  6  1  0  0  0  0
 29  7  1  0  0  0  0
 30  7  1  0  0  0  0
  8  4  1  0  0  0  0
 31  8  1  0  0  0  0
 32  8  1  0  0  0  0
 11 10  2  0  0  0  0
 12 10  2  0  0  0  0
 13 10  1  0  0  0  0
 33 13  1  0  0  0  0
 34 13  1  0  0  0  0
 14 13  1  0  0  0  0
 15 14  1  0  0  0  0
 21 15  2  0  0  0  0
 16 15  1  0  0  0  0
 35 16  1  0  0  0  0
 17 16  2  0  0  0  0
 36 17  1  0  0  0  0
 37 17  1  0  0  0  0
 18 14  2  0  0  0  0
 38 18  1  0  0  0  0
 19 18  1  0  0  0  0
 39 19  1  0  0  0  0
 20 19  2  0  0  0  0
 40 20  1  0  0  0  0
 41 21  1  0  0  0  0
  9  8  1  0  0  0  0
 21 20  1  0  0  0  0
M  END
>  <FittedScore>
-35.79

$$$$
