A71EV2A-x4611a_best-RMSD
  FITTED

 35 37     0  0  0  0  0  0  0999 V2000
   10.0834   14.7150   25.4132 O    0  0  0  0  0  0  0  0  0  0  0  0
   10.0494   15.0703   24.2482 C    0  0  0  0  0  0  0  0  0  0  0  0
   11.3730   15.4395   23.5611 C    0  0  0  0  0  0  0  0  0  0  0  0
   11.2488   16.0238   22.1262 C    0  0  0  0  0  0  0  0  0  0  0  0
    8.8866   15.0346   23.5042 N    0  0  0  0  0  0  0  0  0  0  0  0
    8.8339   15.2799   22.0276 C    0  0  0  0  0  0  0  0  0  0  0  0
   10.2166   15.2131   21.3073 C    0  0  0  0  0  0  0  0  0  0  0  0
   10.1527   15.6793   19.8493 C    0  0  0  0  0  0  0  0  0  0  0  0
    9.7563   16.7781   19.5052 O    0  0  0  0  0  0  0  0  0  0  0  0
   10.5157   14.7676   18.9241 N    0  0  0  0  0  0  0  0  0  0  0  0
    7.5399   14.7913   24.1053 C    0  0  0  0  0  0  0  0  0  0  0  0
    7.2778   13.3770   24.6184 C    0  0  0  0  0  0  0  0  0  0  0  0
    7.8971   12.1081   24.2080 C    0  0  0  0  0  0  0  0  0  0  0  0
    7.2083   11.1479   24.9073 C    0  0  0  0  0  0  0  0  0  0  0  0
    6.2688   11.7131   25.7340 O    0  0  0  0  0  0  0  0  0  0  0  0
    6.3606   13.1242   25.5049 N    0  0  0  0  0  0  0  0  0  0  0  0
    8.9462   11.7577   23.3450 C    0  0  0  0  0  0  0  0  0  0  0  0
    9.2545   10.3950   23.1918 C    0  0  0  0  0  0  0  0  0  0  0  0
    8.5257    9.4092   23.8841 C    0  0  0  0  0  0  0  0  0  0  0  0
    7.4927    9.7859   24.7601 C    0  0  0  0  0  0  0  0  0  0  0  0
   11.9011   16.1728   24.1809 H    0  0  0  0  0  0  0  0  0  0  0  0
   12.0015   14.5442   23.5314 H    0  0  0  0  0  0  0  0  0  0  0  0
   10.9410   17.0735   22.1810 H    0  0  0  0  0  0  0  0  0  0  0  0
   12.2263   16.0021   21.6371 H    0  0  0  0  0  0  0  0  0  0  0  0
    8.3929   16.2695   21.8663 H    0  0  0  0  0  0  0  0  0  0  0  0
    8.1709   14.5509   21.5495 H    0  0  0  0  0  0  0  0  0  0  0  0
   10.5352   14.1637   21.3248 H    0  0  0  0  0  0  0  0  0  0  0  0
   10.4867   15.0057   17.9395 H    0  0  0  0  0  0  0  0  0  0  0  0
   10.7404   13.8137   19.2004 H    0  0  0  0  0  0  0  0  0  0  0  0
    6.7336   15.0525   23.4124 H    0  0  0  0  0  0  0  0  0  0  0  0
    7.4225   15.4964   24.9346 H    0  0  0  0  0  0  0  0  0  0  0  0
    9.5125   12.4946   22.7927 H    0  0  0  0  0  0  0  0  0  0  0  0
   10.0543   10.0970   22.5198 H    0  0  0  0  0  0  0  0  0  0  0  0
    8.7706    8.3598   23.7460 H    0  0  0  0  0  0  0  0  0  0  0  0
    6.9408    9.0347   25.3202 H    0  0  0  0  0  0  0  0  0  0  0  0
  2  5  1  0  0  0  0
  3  2  1  0  0  0  0
 21  3  1  0  0  0  0
  1  2  2  0  0  0  0
 22  3  1  0  0  0  0
  4  3  1  0  0  0  0
 23  4  1  0  0  0  0
 24  4  1  0  0  0  0
  6  5  1  0  0  0  0
 25  6  1  0  0  0  0
 26  6  1  0  0  0  0
  7  4  1  0  0  0  0
  8  7  1  0  0  0  0
 27  7  1  0  0  0  0
  9  8  2  0  0  0  0
 10  8  1  0  0  0  0
 28 10  1  0  0  0  0
 29 10  1  0  0  0  0
 11  5  1  0  0  0  0
 30 11  1  0  0  0  0
 31 11  1  0  0  0  0
 12 11  1  0  0  0  0
 16 12  2  0  0  0  0
 13 12  1  0  0  0  0
 14 13  1  0  0  0  0
 20 14  2  0  0  0  0
 15 14  1  0  0  0  0
 17 13  2  0  0  0  0
 32 17  1  0  0  0  0
 18 17  1  0  0  0  0
 33 18  1  0  0  0  0
 19 18  2  0  0  0  0
 34 19  1  0  0  0  0
 35 20  1  0  0  0  0
  7  6  1  0  0  0  0
 16 15  1  0  0  0  0
 20 19  1  0  0  0  0
M  END
>  <FittedScore>
-35.38

$$$$
