A71EV2A-x4611a_lowest-energy
  FITTED

 35 37     0  0  0  0  0  0  0999 V2000
   10.2491   15.0652   25.3875 O    0  0  0  0  0  0  0  0  0  0  0  0
   10.2343   15.2911   24.1885 C    0  0  0  0  0  0  0  0  0  0  0  0
   11.5355   15.7275   23.5086 C    0  0  0  0  0  0  0  0  0  0  0  0
   11.3830   16.2908   22.0667 C    0  0  0  0  0  0  0  0  0  0  0  0
    9.1333   15.0236   23.4026 N    0  0  0  0  0  0  0  0  0  0  0  0
    9.0697   15.2836   21.9342 C    0  0  0  0  0  0  0  0  0  0  0  0
   10.4615   15.3540   21.2481 C    0  0  0  0  0  0  0  0  0  0  0  0
   10.3446   15.7712   19.7810 C    0  0  0  0  0  0  0  0  0  0  0  0
    9.8544   16.8211   19.4130 O    0  0  0  0  0  0  0  0  0  0  0  0
   10.6203   14.8065   18.8826 N    0  0  0  0  0  0  0  0  0  0  0  0
    7.8945   14.3820   23.9261 C    0  0  0  0  0  0  0  0  0  0  0  0
    8.0292   12.8637   24.0037 C    0  0  0  0  0  0  0  0  0  0  0  0
    7.2255   12.0262   24.8798 C    0  0  0  0  0  0  0  0  0  0  0  0
    7.5923   10.7400   24.5853 C    0  0  0  0  0  0  0  0  0  0  0  0
    8.5779   10.7249   23.6286 O    0  0  0  0  0  0  0  0  0  0  0  0
    8.8082   12.1008   23.2903 N    0  0  0  0  0  0  0  0  0  0  0  0
    6.2381   12.3228   25.8298 C    0  0  0  0  0  0  0  0  0  0  0  0
    5.6193   11.2455   26.4901 C    0  0  0  0  0  0  0  0  0  0  0  0
    5.9850    9.9183   26.1783 C    0  0  0  0  0  0  0  0  0  0  0  0
    6.9715    9.6539   25.2068 C    0  0  0  0  0  0  0  0  0  0  0  0
   12.0186   16.4876   24.1292 H    0  0  0  0  0  0  0  0  0  0  0  0
   12.2142   14.8693   23.4898 H    0  0  0  0  0  0  0  0  0  0  0  0
   10.9620   17.3003   22.1091 H    0  0  0  0  0  0  0  0  0  0  0  0
   12.3683   16.3784   21.5971 H    0  0  0  0  0  0  0  0  0  0  0  0
    8.5368   16.2270   21.7882 H    0  0  0  0  0  0  0  0  0  0  0  0
    8.4855   14.5132   21.4219 H    0  0  0  0  0  0  0  0  0  0  0  0
   10.8963   14.3458   21.2963 H    0  0  0  0  0  0  0  0  0  0  0  0
   10.5692   15.0153   17.8919 H    0  0  0  0  0  0  0  0  0  0  0  0
   10.7923   13.8482   19.1819 H    0  0  0  0  0  0  0  0  0  0  0  0
    7.0193   14.6341   23.3220 H    0  0  0  0  0  0  0  0  0  0  0  0
    7.6694   14.7896   24.9153 H    0  0  0  0  0  0  0  0  0  0  0  0
    5.9594   13.3479   26.0540 H    0  0  0  0  0  0  0  0  0  0  0  0
    4.8539   11.4379   27.2355 H    0  0  0  0  0  0  0  0  0  0  0  0
    5.4905    9.0895   26.6811 H    0  0  0  0  0  0  0  0  0  0  0  0
    7.2454    8.6306   24.9514 H    0  0  0  0  0  0  0  0  0  0  0  0
  2  5  1  0  0  0  0
  3  2  1  0  0  0  0
 21  3  1  0  0  0  0
  1  2  2  0  0  0  0
 22  3  1  0  0  0  0
  4  3  1  0  0  0  0
 23  4  1  0  0  0  0
 24  4  1  0  0  0  0
  6  5  1  0  0  0  0
 25  6  1  0  0  0  0
 26  6  1  0  0  0  0
  7  4  1  0  0  0  0
  8  7  1  0  0  0  0
 27  7  1  0  0  0  0
  9  8  2  0  0  0  0
 10  8  1  0  0  0  0
 28 10  1  0  0  0  0
 29 10  1  0  0  0  0
 11  5  1  0  0  0  0
 30 11  1  0  0  0  0
 31 11  1  0  0  0  0
 12 11  1  0  0  0  0
 16 12  2  0  0  0  0
 13 12  1  0  0  0  0
 14 13  1  0  0  0  0
 20 14  2  0  0  0  0
 15 14  1  0  0  0  0
 17 13  2  0  0  0  0
 32 17  1  0  0  0  0
 18 17  1  0  0  0  0
 33 18  1  0  0  0  0
 19 18  2  0  0  0  0
 34 19  1  0  0  0  0
 35 20  1  0  0  0  0
  7  6  1  0  0  0  0
 16 15  1  0  0  0  0
 20 19  1  0  0  0  0
M  END
>  <FittedScore>
-31.35

$$$$
