A71EV2A-x4347a_lowest-energy
  FITTED

 39 40     0  0  0  0  0  0  0999 V2000
    9.8859   16.5996   19.4723 O    0  0  0  0  0  0  0  0  0  0  0  0
   10.4311   15.5599   19.7616 C    0  0  0  0  0  0  0  0  0  0  0  0
   10.9375   14.7763   18.7927 N    0  0  0  0  0  0  0  0  0  0  0  0
   10.5113   15.0243   21.1865 C    0  0  0  0  0  0  0  0  0  0  0  0
   11.5134   15.8680   22.0209 C    0  0  0  0  0  0  0  0  0  0  0  0
   11.5729   15.3193   23.4666 C    0  0  0  0  0  0  0  0  0  0  0  0
   10.1579   15.2088   24.0972 C    0  0  0  0  0  0  0  0  0  0  0  0
    9.1106   14.9452   21.8768 C    0  0  0  0  0  0  0  0  0  0  0  0
    9.1815   14.4031   23.2743 N    0  0  0  0  0  0  0  0  0  0  0  0
    8.3505   13.3973   23.7376 C    0  0  0  0  0  0  0  0  0  0  0  0
    7.4863   12.8984   23.0277 O    0  0  0  0  0  0  0  0  0  0  0  0
    8.4947   12.9454   25.1990 C    0  0  0  0  0  0  0  0  0  0  0  0
    7.7215   11.6820   25.5769 C    0  0  0  0  0  0  0  0  0  0  0  0
    8.1063   10.4066   25.1004 C    0  0  0  0  0  0  0  0  0  0  0  0
    9.1856   10.3317   24.2263 O    0  0  0  0  0  0  0  0  0  0  0  0
    9.6336    9.1158   23.5863 C    0  0  0  0  0  0  0  0  0  0  0  0
    6.6078   11.7825   26.4323 C    0  0  0  0  0  0  0  0  0  0  0  0
    5.9157   10.6226   26.8020 C    0  0  0  0  0  0  0  0  0  0  0  0
    6.3512    9.3906   26.3027 C    0  0  0  0  0  0  0  0  0  0  0  0
    7.4193    9.2835   25.4683 N    0  0  0  0  0  0  0  0  0  0  0  0
   11.2240   13.8252   19.0102 H    0  0  0  0  0  0  0  0  0  0  0  0
   10.8778   15.0711   17.8234 H    0  0  0  0  0  0  0  0  0  0  0  0
   10.8989   13.9973   21.1649 H    0  0  0  0  0  0  0  0  0  0  0  0
   12.5077   15.8227   21.5672 H    0  0  0  0  0  0  0  0  0  0  0  0
   11.2129   16.9213   22.0313 H    0  0  0  0  0  0  0  0  0  0  0  0
   12.0566   14.3384   23.4617 H    0  0  0  0  0  0  0  0  0  0  0  0
   12.1979   15.9719   24.0789 H    0  0  0  0  0  0  0  0  0  0  0  0
   10.3032   14.8315   25.1067 H    0  0  0  0  0  0  0  0  0  0  0  0
    9.7447   16.2126   24.2349 H    0  0  0  0  0  0  0  0  0  0  0  0
    8.4632   14.3457   21.2304 H    0  0  0  0  0  0  0  0  0  0  0  0
    8.6495   15.9372   21.9106 H    0  0  0  0  0  0  0  0  0  0  0  0
    9.5456   12.7476   25.4288 H    0  0  0  0  0  0  0  0  0  0  0  0
    8.1904   13.7691   25.8496 H    0  0  0  0  0  0  0  0  0  0  0  0
   10.0063    8.4110   24.3341 H    0  0  0  0  0  0  0  0  0  0  0  0
   10.4430    9.3679   22.9001 H    0  0  0  0  0  0  0  0  0  0  0  0
    8.8203    8.6541   23.0188 H    0  0  0  0  0  0  0  0  0  0  0  0
    6.2791   12.7468   26.8103 H    0  0  0  0  0  0  0  0  0  0  0  0
    5.0569   10.6815   27.4633 H    0  0  0  0  0  0  0  0  0  0  0  0
    5.8219    8.4857   26.5933 H    0  0  0  0  0  0  0  0  0  0  0  0
  9 10  1  0  0  0  0
  7  9  1  0  0  0  0
  6  7  1  0  0  0  0
  5  6  1  0  0  0  0
  4  5  1  0  0  0  0
  2  4  1  0  0  0  0
  1  2  2  0  0  0  0
  3  2  1  0  0  0  0
 21  3  1  0  0  0  0
 22  3  1  0  0  0  0
 23  4  1  0  0  0  0
 24  5  1  0  0  0  0
 25  5  1  0  0  0  0
 26  6  1  0  0  0  0
 27  6  1  0  0  0  0
 28  7  1  0  0  0  0
 29  7  1  0  0  0  0
  8  4  1  0  0  0  0
 30  8  1  0  0  0  0
 31  8  1  0  0  0  0
 11 10  2  0  0  0  0
 12 10  1  0  0  0  0
 32 12  1  0  0  0  0
 33 12  1  0  0  0  0
 13 12  1  0  0  0  0
 14 13  1  0  0  0  0
 20 14  2  0  0  0  0
 15 14  1  0  0  0  0
 16 15  1  0  0  0  0
 34 16  1  0  0  0  0
 35 16  1  0  0  0  0
 36 16  1  0  0  0  0
 17 13  2  0  0  0  0
 37 17  1  0  0  0  0
 18 17  1  0  0  0  0
 38 18  1  0  0  0  0
 19 18  2  0  0  0  0
 39 19  1  0  0  0  0
  9  8  1  0  0  0  0
 20 19  1  0  0  0  0
M  END
>  <FittedScore>
-32.56

$$$$
