A71EV2A-x4347a_best-RMSD
  FITTED

 39 40     0  0  0  0  0  0  0999 V2000
   10.1009   16.6699   19.4414 O    0  0  0  0  0  0  0  0  0  0  0  0
   10.5121   15.5601   19.6965 C    0  0  0  0  0  0  0  0  0  0  0  0
   10.9119   14.7176   18.7319 N    0  0  0  0  0  0  0  0  0  0  0  0
   10.5714   15.0062   21.1109 C    0  0  0  0  0  0  0  0  0  0  0  0
   11.6059   15.8010   21.9544 C    0  0  0  0  0  0  0  0  0  0  0  0
   11.5803   15.3224   23.4252 C    0  0  0  0  0  0  0  0  0  0  0  0
   10.1411   15.2929   23.9878 C    0  0  0  0  0  0  0  0  0  0  0  0
    9.1545   14.9433   21.7632 C    0  0  0  0  0  0  0  0  0  0  0  0
    9.1965   14.4473   23.1766 N    0  0  0  0  0  0  0  0  0  0  0  0
    8.4084   13.4099   23.6438 C    0  0  0  0  0  0  0  0  0  0  0  0
    7.5060   12.9306   22.9680 O    0  0  0  0  0  0  0  0  0  0  0  0
    8.7393   12.8383   25.0280 C    0  0  0  0  0  0  0  0  0  0  0  0
    7.9015   11.6345   25.4536 C    0  0  0  0  0  0  0  0  0  0  0  0
    8.1812   10.3230   25.0011 C    0  0  0  0  0  0  0  0  0  0  0  0
    9.2579   10.1339   24.1462 O    0  0  0  0  0  0  0  0  0  0  0  0
    9.5655    8.8939   23.4668 C    0  0  0  0  0  0  0  0  0  0  0  0
    6.8128   11.8362   26.3230 C    0  0  0  0  0  0  0  0  0  0  0  0
    6.0357   10.7418   26.7224 C    0  0  0  0  0  0  0  0  0  0  0  0
    6.3545    9.4726   26.2256 C    0  0  0  0  0  0  0  0  0  0  0  0
    7.4061    9.2689   25.3907 N    0  0  0  0  0  0  0  0  0  0  0  0
   10.8220   14.9757   17.7574 H    0  0  0  0  0  0  0  0  0  0  0  0
   11.1547   13.7566   18.9689 H    0  0  0  0  0  0  0  0  0  0  0  0
   10.9300   13.9671   21.0857 H    0  0  0  0  0  0  0  0  0  0  0  0
   12.6084   15.6499   21.5417 H    0  0  0  0  0  0  0  0  0  0  0  0
   11.4020   16.8755   21.9146 H    0  0  0  0  0  0  0  0  0  0  0  0
   12.0331   14.3273   23.4935 H    0  0  0  0  0  0  0  0  0  0  0  0
   12.1992   15.9904   24.0278 H    0  0  0  0  0  0  0  0  0  0  0  0
   10.2286   14.9975   25.0264 H    0  0  0  0  0  0  0  0  0  0  0  0
    9.7522   16.3115   24.0283 H    0  0  0  0  0  0  0  0  0  0  0  0
    8.5301   14.3050   21.1255 H    0  0  0  0  0  0  0  0  0  0  0  0
    8.6788   15.9278   21.7446 H    0  0  0  0  0  0  0  0  0  0  0  0
    9.7975   12.5669   25.0623 H    0  0  0  0  0  0  0  0  0  0  0  0
    8.6015   13.6222   25.7754 H    0  0  0  0  0  0  0  0  0  0  0  0
    8.7323    8.5813   22.8355 H    0  0  0  0  0  0  0  0  0  0  0  0
    9.7937    8.1068   24.1912 H    0  0  0  0  0  0  0  0  0  0  0  0
   10.4465    9.0403   22.8378 H    0  0  0  0  0  0  0  0  0  0  0  0
    6.5656   12.8289   26.6901 H    0  0  0  0  0  0  0  0  0  0  0  0
    5.2043   10.8755   27.4041 H    0  0  0  0  0  0  0  0  0  0  0  0
    5.7494    8.6168   26.5234 H    0  0  0  0  0  0  0  0  0  0  0  0
  9 10  1  0  0  0  0
  7  9  1  0  0  0  0
  6  7  1  0  0  0  0
  5  6  1  0  0  0  0
  4  5  1  0  0  0  0
  2  4  1  0  0  0  0
  1  2  2  0  0  0  0
  3  2  1  0  0  0  0
 21  3  1  0  0  0  0
 22  3  1  0  0  0  0
 23  4  1  0  0  0  0
 24  5  1  0  0  0  0
 25  5  1  0  0  0  0
 26  6  1  0  0  0  0
 27  6  1  0  0  0  0
 28  7  1  0  0  0  0
 29  7  1  0  0  0  0
  8  4  1  0  0  0  0
 30  8  1  0  0  0  0
 31  8  1  0  0  0  0
 11 10  2  0  0  0  0
 12 10  1  0  0  0  0
 32 12  1  0  0  0  0
 33 12  1  0  0  0  0
 13 12  1  0  0  0  0
 14 13  1  0  0  0  0
 20 14  2  0  0  0  0
 15 14  1  0  0  0  0
 16 15  1  0  0  0  0
 34 16  1  0  0  0  0
 35 16  1  0  0  0  0
 36 16  1  0  0  0  0
 17 13  2  0  0  0  0
 37 17  1  0  0  0  0
 18 17  1  0  0  0  0
 38 18  1  0  0  0  0
 19 18  2  0  0  0  0
 39 19  1  0  0  0  0
  9  8  1  0  0  0  0
 20 19  1  0  0  0  0
M  END
>  <FittedScore>
-32.35

$$$$
