A71EV2A-x3883a_lowest-energy
  FITTED

 44 45     0  0  0  0  0  0  0999 V2000
    9.8416   16.5984   19.1282 O    0  0  0  0  0  0  0  0  0  0  0  0
   10.3840   15.5827   19.5097 C    0  0  0  0  0  0  0  0  0  0  0  0
   10.8813   14.7174   18.6100 N    0  0  0  0  0  0  0  0  0  0  0  0
   10.4274   15.1507   20.9746 C    0  0  0  0  0  0  0  0  0  0  0  0
   11.2690   16.1337   21.8350 C    0  0  0  0  0  0  0  0  0  0  0  0
   11.2799   15.6695   23.3113 C    0  0  0  0  0  0  0  0  0  0  0  0
    9.8468   15.4066   23.8517 C    0  0  0  0  0  0  0  0  0  0  0  0
    8.9976   14.9580   21.5680 C    0  0  0  0  0  0  0  0  0  0  0  0
    8.9843   14.5068   23.0047 N    0  0  0  0  0  0  0  0  0  0  0  0
    8.0641   13.5819   23.4823 C    0  0  0  0  0  0  0  0  0  0  0  0
    7.2105   13.1048   22.7509 O    0  0  0  0  0  0  0  0  0  0  0  0
    7.9662   13.2865   25.0052 C    0  0  0  0  0  0  0  0  0  0  0  0
    7.5011   14.4745   25.7245 O    0  0  0  0  0  0  0  0  0  0  0  0
    6.3510   15.2475   25.2578 C    0  0  0  0  0  0  0  0  0  0  0  0
    7.2278   11.9755   25.3872 C    0  0  0  0  0  0  0  0  0  0  0  0
    7.6644   10.7279   24.8636 C    0  0  0  0  0  0  0  0  0  0  0  0
    8.7820   10.6972   24.0194 O    0  0  0  0  0  0  0  0  0  0  0  0
    9.3742    9.5006   23.4638 C    0  0  0  0  0  0  0  0  0  0  0  0
    6.1493   11.9787   26.3068 C    0  0  0  0  0  0  0  0  0  0  0  0
    5.4897   10.7992   26.6609 C    0  0  0  0  0  0  0  0  0  0  0  0
    5.8923    9.5912   26.1020 C    0  0  0  0  0  0  0  0  0  0  0  0
    6.9679    9.5509   25.2120 C    0  0  0  0  0  0  0  0  0  0  0  0
   10.8533   14.9531   17.6255 H    0  0  0  0  0  0  0  0  0  0  0  0
   11.1551   13.7773   18.8932 H    0  0  0  0  0  0  0  0  0  0  0  0
   10.9195   14.1722   21.0454 H    0  0  0  0  0  0  0  0  0  0  0  0
   12.2937   16.1695   21.4589 H    0  0  0  0  0  0  0  0  0  0  0  0
   10.8658   17.1501   21.7647 H    0  0  0  0  0  0  0  0  0  0  0  0
   11.8738   14.7554   23.4074 H    0  0  0  0  0  0  0  0  0  0  0  0
   11.7695   16.4272   23.9290 H    0  0  0  0  0  0  0  0  0  0  0  0
    9.9873   15.0288   24.8632 H    0  0  0  0  0  0  0  0  0  0  0  0
    9.3304   16.3651   23.9708 H    0  0  0  0  0  0  0  0  0  0  0  0
    8.4871   14.2419   20.9180 H    0  0  0  0  0  0  0  0  0  0  0  0
    8.4266   15.8875   21.4928 H    0  0  0  0  0  0  0  0  0  0  0  0
    8.9719   13.1101   25.3965 H    0  0  0  0  0  0  0  0  0  0  0  0
    5.5161   14.5965   24.9864 H    0  0  0  0  0  0  0  0  0  0  0  0
    6.6206   15.8477   24.3869 H    0  0  0  0  0  0  0  0  0  0  0  0
    6.0314   15.9219   26.0529 H    0  0  0  0  0  0  0  0  0  0  0  0
    8.6392    8.9755   22.8505 H    0  0  0  0  0  0  0  0  0  0  0  0
    9.7471    8.8522   24.2604 H    0  0  0  0  0  0  0  0  0  0  0  0
   10.2168    9.7881   22.8355 H    0  0  0  0  0  0  0  0  0  0  0  0
    5.7965   12.8874   26.7761 H    0  0  0  0  0  0  0  0  0  0  0  0
    4.6583   10.8238   27.3629 H    0  0  0  0  0  0  0  0  0  0  0  0
    5.3698    8.6742   26.3567 H    0  0  0  0  0  0  0  0  0  0  0  0
    7.2450    8.5866   24.8080 H    0  0  0  0  0  0  0  0  0  0  0  0
  9 10  1  0  0  0  0
  7  9  1  0  0  0  0
  6  7  1  0  0  0  0
  5  6  1  0  0  0  0
  4  5  1  0  0  0  0
  2  4  1  0  0  0  0
  1  2  2  0  0  0  0
  3  2  1  0  0  0  0
 23  3  1  0  0  0  0
 24  3  1  0  0  0  0
 25  4  1  0  0  0  0
 26  5  1  0  0  0  0
 27  5  1  0  0  0  0
 28  6  1  0  0  0  0
 29  6  1  0  0  0  0
 30  7  1  0  0  0  0
 31  7  1  0  0  0  0
  8  4  1  0  0  0  0
 32  8  1  0  0  0  0
 33  8  1  0  0  0  0
 11 10  2  0  0  0  0
 12 10  1  0  0  0  0
 13 12  1  0  0  0  0
 34 12  1  0  0  0  0
 14 13  1  0  0  0  0
 35 14  1  0  0  0  0
 36 14  1  0  0  0  0
 37 14  1  0  0  0  0
 15 12  1  0  0  0  0
 16 15  1  0  0  0  0
 22 16  2  0  0  0  0
 17 16  1  0  0  0  0
 18 17  1  0  0  0  0
 38 18  1  0  0  0  0
 39 18  1  0  0  0  0
 40 18  1  0  0  0  0
 19 15  2  0  0  0  0
 41 19  1  0  0  0  0
 20 19  1  0  0  0  0
 42 20  1  0  0  0  0
 21 20  2  0  0  0  0
 43 21  1  0  0  0  0
 44 22  1  0  0  0  0
  9  8  1  0  0  0  0
 22 21  1  0  0  0  0
M  END
>  <FittedScore>
-35.49

$$$$
