A71EV2A-x3883a_best-RMSD
  FITTED

 44 45     0  0  0  0  0  0  0999 V2000
    9.7714   16.5859   19.1172 O    0  0  0  0  0  0  0  0  0  0  0  0
   10.3704   15.6004   19.4787 C    0  0  0  0  0  0  0  0  0  0  0  0
   10.8569   14.7305   18.5823 N    0  0  0  0  0  0  0  0  0  0  0  0
   10.4478   15.1673   20.9247 C    0  0  0  0  0  0  0  0  0  0  0  0
   11.3364   16.1251   21.7564 C    0  0  0  0  0  0  0  0  0  0  0  0
   11.4204   15.6015   23.2080 C    0  0  0  0  0  0  0  0  0  0  0  0
   10.0183   15.3133   23.8140 C    0  0  0  0  0  0  0  0  0  0  0  0
    9.0378   14.9903   21.5565 C    0  0  0  0  0  0  0  0  0  0  0  0
    9.0766   14.4867   22.9697 N    0  0  0  0  0  0  0  0  0  0  0  0
    8.1417   13.5764   23.4457 C    0  0  0  0  0  0  0  0  0  0  0  0
    7.2470   13.1432   22.7293 O    0  0  0  0  0  0  0  0  0  0  0  0
    8.0786   13.2558   24.9587 C    0  0  0  0  0  0  0  0  0  0  0  0
    7.6667   14.4465   25.6992 O    0  0  0  0  0  0  0  0  0  0  0  0
    6.5010   15.2321   25.2893 C    0  0  0  0  0  0  0  0  0  0  0  0
    7.3070   11.9581   25.3334 C    0  0  0  0  0  0  0  0  0  0  0  0
    7.7138   10.7009   24.8048 C    0  0  0  0  0  0  0  0  0  0  0  0
    8.8257   10.6509   23.9595 O    0  0  0  0  0  0  0  0  0  0  0  0
    9.4228    9.4482   23.4157 C    0  0  0  0  0  0  0  0  0  0  0  0
    6.2351   11.9832   26.2575 C    0  0  0  0  0  0  0  0  0  0  0  0
    5.5405   10.8194   26.5997 C    0  0  0  0  0  0  0  0  0  0  0  0
    5.9136    9.6020   26.0367 C    0  0  0  0  0  0  0  0  0  0  0  0
    6.9909    9.5400   25.1479 C    0  0  0  0  0  0  0  0  0  0  0  0
   11.1267   13.7849   18.8507 H    0  0  0  0  0  0  0  0  0  0  0  0
   10.8635   14.9805   17.6052 H    0  0  0  0  0  0  0  0  0  0  0  0
   10.9242   14.1823   20.9596 H    0  0  0  0  0  0  0  0  0  0  0  0
   12.3436   16.1804   21.3261 H    0  0  0  0  0  0  0  0  0  0  0  0
   10.9344   17.1438   21.7461 H    0  0  0  0  0  0  0  0  0  0  0  0
   12.0199   14.6861   23.2304 H    0  0  0  0  0  0  0  0  0  0  0  0
   11.9432   16.3313   23.8309 H    0  0  0  0  0  0  0  0  0  0  0  0
   10.2232   14.8549   24.7784 H    0  0  0  0  0  0  0  0  0  0  0  0
    9.5281   16.2648   24.0399 H    0  0  0  0  0  0  0  0  0  0  0  0
    8.4881   14.3087   20.8997 H    0  0  0  0  0  0  0  0  0  0  0  0
    8.4862   15.9359   21.5378 H    0  0  0  0  0  0  0  0  0  0  0  0
    9.0856   13.0337   25.3178 H    0  0  0  0  0  0  0  0  0  0  0  0
    6.2337   15.9134   26.0984 H    0  0  0  0  0  0  0  0  0  0  0  0
    5.6437   14.5925   25.0670 H    0  0  0  0  0  0  0  0  0  0  0  0
    6.7291   15.8257   24.4013 H    0  0  0  0  0  0  0  0  0  0  0  0
    9.7539    8.7887   24.2249 H    0  0  0  0  0  0  0  0  0  0  0  0
   10.2885    9.7340   22.8197 H    0  0  0  0  0  0  0  0  0  0  0  0
    8.7156    8.9248   22.7695 H    0  0  0  0  0  0  0  0  0  0  0  0
    5.9208   12.9024   26.7433 H    0  0  0  0  0  0  0  0  0  0  0  0
    4.7126   10.8665   27.3033 H    0  0  0  0  0  0  0  0  0  0  0  0
    5.3606    8.6981   26.2850 H    0  0  0  0  0  0  0  0  0  0  0  0
    7.2415    8.5707   24.7273 H    0  0  0  0  0  0  0  0  0  0  0  0
  9 10  1  0  0  0  0
  7  9  1  0  0  0  0
  6  7  1  0  0  0  0
  5  6  1  0  0  0  0
  4  5  1  0  0  0  0
  2  4  1  0  0  0  0
  1  2  2  0  0  0  0
  3  2  1  0  0  0  0
 23  3  1  0  0  0  0
 24  3  1  0  0  0  0
 25  4  1  0  0  0  0
 26  5  1  0  0  0  0
 27  5  1  0  0  0  0
 28  6  1  0  0  0  0
 29  6  1  0  0  0  0
 30  7  1  0  0  0  0
 31  7  1  0  0  0  0
  8  4  1  0  0  0  0
 32  8  1  0  0  0  0
 33  8  1  0  0  0  0
 11 10  2  0  0  0  0
 12 10  1  0  0  0  0
 13 12  1  0  0  0  0
 34 12  1  0  0  0  0
 14 13  1  0  0  0  0
 35 14  1  0  0  0  0
 36 14  1  0  0  0  0
 37 14  1  0  0  0  0
 15 12  1  0  0  0  0
 16 15  1  0  0  0  0
 22 16  2  0  0  0  0
 17 16  1  0  0  0  0
 18 17  1  0  0  0  0
 38 18  1  0  0  0  0
 39 18  1  0  0  0  0
 40 18  1  0  0  0  0
 19 15  2  0  0  0  0
 41 19  1  0  0  0  0
 20 19  1  0  0  0  0
 42 20  1  0  0  0  0
 21 20  2  0  0  0  0
 43 21  1  0  0  0  0
 44 22  1  0  0  0  0
  9  8  1  0  0  0  0
 22 21  1  0  0  0  0
M  END
>  <FittedScore>
-34.89

$$$$
