A71EV2A-x7167b_best-RMSD
  FITTED

 57 59     0  0  0  0  0  0  0999 V2000
   10.7337   14.8382   18.8221 O    0  0  0  0  0  0  0  0  0  0  0  0
   10.2383   15.4241   19.7608 C    0  0  0  0  0  0  0  0  0  0  0  0
    9.5845   16.5855   19.5699 N    0  0  0  0  0  0  0  0  0  0  0  0
   10.6436   15.1067   21.1864 C    0  0  0  0  0  0  0  0  0  0  0  0
   11.6808   16.1446   21.6912 C    0  0  0  0  0  0  0  0  0  0  0  0
   12.0751   15.7940   23.1302 C    0  0  0  0  0  0  0  0  0  0  0  0
   10.8444   15.7684   24.0583 C    0  0  0  0  0  0  0  0  0  0  0  0
    9.4342   14.9363   22.1735 C    0  0  0  0  0  0  0  0  0  0  0  0
    9.8181   14.7702   23.6212 N    0  0  0  0  0  0  0  0  0  0  0  0
    9.2119   13.9072   24.4948 C    0  0  0  0  0  0  0  0  0  0  0  0
    9.5456   13.8544   25.6657 O    0  0  0  0  0  0  0  0  0  0  0  0
    8.2111   13.1217   24.0143 O    0  0  0  0  0  0  0  0  0  0  0  0
    7.6314   12.0992   24.7544 C    0  0  0  0  0  0  0  0  0  0  0  0
    8.1158   10.7796   24.6583 C    0  0  0  0  0  0  0  0  0  0  0  0
    9.5299   10.4418   23.6192 S    0  0  0  0  0  0  0  0  0  0  0  0
    9.5731    8.6499   23.3069 C    0  0  0  0  0  0  0  0  0  0  0  0
    6.5507   12.4011   25.5940 C    0  0  0  0  0  0  0  0  0  0  0  0
    5.8884   11.3835   26.3157 C    0  0  0  0  0  0  0  0  0  0  0  0
    6.3605   10.0627   26.1843 C    0  0  0  0  0  0  0  0  0  0  0  0
    7.4630    9.7680   25.3835 C    0  0  0  0  0  0  0  0  0  0  0  0
    4.7351   11.6635   27.0773 C    0  0  0  0  0  0  0  0  0  0  0  0
    4.2672   11.0188   28.2210 N    0  0  0  0  0  0  0  0  0  0  0  0
    5.1007   10.7753   29.4974 C    0  0  0  0  0  0  0  0  0  0  0  0
    4.2574   10.7088   30.8316 C    0  0  0  0  0  0  0  0  0  0  0  0
    5.8542    9.3997   29.4380 C    0  0  0  0  0  0  0  0  0  0  0  0
    6.1360   11.9437   29.6851 C    0  0  0  0  0  0  0  0  0  0  0  0
    2.9276   11.2757   28.4087 N    0  0  0  0  0  0  0  0  0  0  0  0
    2.6745   12.3476   27.4407 C    0  0  0  0  0  0  0  0  0  0  0  0
    3.7833   12.5830   26.6731 C    0  0  0  0  0  0  0  0  0  0  0  0
    9.4171   17.1776   20.3634 H    0  0  0  0  0  0  0  0  0  0  0  0
    9.2652   16.8475   18.6557 H    0  0  0  0  0  0  0  0  0  0  0  0
   11.1566   14.1345   21.1395 H    0  0  0  0  0  0  0  0  0  0  0  0
   12.5569   16.1357   21.0417 H    0  0  0  0  0  0  0  0  0  0  0  0
   11.2724   17.1629   21.6561 H    0  0  0  0  0  0  0  0  0  0  0  0
   12.5962   14.8328   23.1605 H    0  0  0  0  0  0  0  0  0  0  0  0
   12.7862   16.5436   23.4814 H    0  0  0  0  0  0  0  0  0  0  0  0
   11.2107   15.5964   25.0730 H    0  0  0  0  0  0  0  0  0  0  0  0
   10.3875   16.7639   24.0889 H    0  0  0  0  0  0  0  0  0  0  0  0
    8.8605   14.0793   21.8075 H    0  0  0  0  0  0  0  0  0  0  0  0
    8.7649   15.8047   22.1208 H    0  0  0  0  0  0  0  0  0  0  0  0
    9.7793    8.1089   24.2303 H    0  0  0  0  0  0  0  0  0  0  0  0
   10.3882    8.4214   22.6153 H    0  0  0  0  0  0  0  0  0  0  0  0
    8.6362    8.2966   22.8682 H    0  0  0  0  0  0  0  0  0  0  0  0
    6.2427   13.4378   25.6739 H    0  0  0  0  0  0  0  0  0  0  0  0
    5.8479    9.2357   26.6606 H    0  0  0  0  0  0  0  0  0  0  0  0
    7.7955    8.7386   25.3401 H    0  0  0  0  0  0  0  0  0  0  0  0
    4.8819   10.5226   31.7100 H    0  0  0  0  0  0  0  0  0  0  0  0
    3.5137    9.9072   30.7918 H    0  0  0  0  0  0  0  0  0  0  0  0
    3.7299   11.6458   31.0282 H    0  0  0  0  0  0  0  0  0  0  0  0
    6.7450    9.4322   28.8091 H    0  0  0  0  0  0  0  0  0  0  0  0
    5.1982    8.6013   29.0803 H    0  0  0  0  0  0  0  0  0  0  0  0
    6.2169    9.0828   30.4202 H    0  0  0  0  0  0  0  0  0  0  0  0
    6.8830   11.9820   28.8866 H    0  0  0  0  0  0  0  0  0  0  0  0
    6.6903   11.8516   30.6236 H    0  0  0  0  0  0  0  0  0  0  0  0
    5.6221   12.9116   29.7042 H    0  0  0  0  0  0  0  0  0  0  0  0
    1.7126   12.8422   27.3691 H    0  0  0  0  0  0  0  0  0  0  0  0
    3.8358   13.2741   25.8364 H    0  0  0  0  0  0  0  0  0  0  0  0
 12 13  1  0  0  0  0
 10 12  1  0  0  0  0
  9 10  1  0  0  0  0
  7  9  1  0  0  0  0
  6  7  1  0  0  0  0
  5  6  1  0  0  0  0
  4  5  1  0  0  0  0
  2  4  1  0  0  0  0
  1  2  2  0  0  0  0
  3  2  1  0  0  0  0
 30  3  1  0  0  0  0
 31  3  1  0  0  0  0
 32  4  1  0  0  0  0
 33  5  1  0  0  0  0
 34  5  1  0  0  0  0
 35  6  1  0  0  0  0
 36  6  1  0  0  0  0
 37  7  1  0  0  0  0
 38  7  1  0  0  0  0
  8  4  1  0  0  0  0
 39  8  1  0  0  0  0
 40  8  1  0  0  0  0
 11 10  2  0  0  0  0
 14 13  1  0  0  0  0
 20 14  2  0  0  0  0
 15 14  1  0  0  0  0
 16 15  1  0  0  0  0
 41 16  1  0  0  0  0
 42 16  1  0  0  0  0
 43 16  1  0  0  0  0
 17 13  2  0  0  0  0
 44 17  1  0  0  0  0
 18 17  1  0  0  0  0
 19 18  2  0  0  0  0
 45 19  1  0  0  0  0
 46 20  1  0  0  0  0
 21 18  1  0  0  0  0
 29 21  2  0  0  0  0
 22 21  1  0  0  0  0
 23 22  1  0  0  0  0
 24 23  1  0  0  0  0
 47 24  1  0  0  0  0
 48 24  1  0  0  0  0
 49 24  1  0  0  0  0
 25 23  1  0  0  0  0
 50 25  1  0  0  0  0
 51 25  1  0  0  0  0
 52 25  1  0  0  0  0
 26 23  1  0  0  0  0
 53 26  1  0  0  0  0
 54 26  1  0  0  0  0
 55 26  1  0  0  0  0
 27 22  1  0  0  0  0
 28 27  2  0  0  0  0
 56 28  1  0  0  0  0
 57 29  1  0  0  0  0
  9  8  1  0  0  0  0
 20 19  1  0  0  0  0
 29 28  1  0  0  0  0
M  END
>  <FittedScore>
-20.56

$$$$
