A71EV2A-x3884b_best-RMSD
  FITTED

 57 58     0  0  0  0  0  0  0999 V2000
    9.7142   16.8013   19.3980 O    0  0  0  0  0  0  0  0  0  0  0  0
   10.2589   15.7557   19.7013 C    0  0  0  0  0  0  0  0  0  0  0  0
   10.6447   14.8901   18.7480 N    0  0  0  0  0  0  0  0  0  0  0  0
   10.4472   15.2457   21.1294 C    0  0  0  0  0  0  0  0  0  0  0  0
   11.4767   16.0999   21.9149 C    0  0  0  0  0  0  0  0  0  0  0  0
   11.7042   15.4693   23.3062 C    0  0  0  0  0  0  0  0  0  0  0  0
   10.3764   15.1746   24.0601 C    0  0  0  0  0  0  0  0  0  0  0  0
    9.1103   15.1202   21.9250 C    0  0  0  0  0  0  0  0  0  0  0  0
    9.2778   14.4859   23.2827 N    0  0  0  0  0  0  0  0  0  0  0  0
    8.4061   13.5129   23.7699 C    0  0  0  0  0  0  0  0  0  0  0  0
    7.5069   13.0855   23.0589 O    0  0  0  0  0  0  0  0  0  0  0  0
    8.5184   12.9923   25.2301 C    0  0  0  0  0  0  0  0  0  0  0  0
    8.2821   14.0992   26.1873 N    0  0  0  0  0  0  0  0  0  0  0  0
    9.0356   14.4709   27.2405 C    0  0  0  0  0  0  0  0  0  0  0  0
    8.4613   15.5205   27.8819 O    0  0  0  0  0  0  0  0  0  0  0  0
    9.0362   16.3418   28.9489 C    0  0  0  0  0  0  0  0  0  0  0  0
    7.9407   17.4079   29.2472 C    0  0  0  0  0  0  0  0  0  0  0  0
   10.3354   17.0437   28.4354 C    0  0  0  0  0  0  0  0  0  0  0  0
    9.2860   15.4831   30.2285 C    0  0  0  0  0  0  0  0  0  0  0  0
   10.1339   14.0034   27.4865 O    0  0  0  0  0  0  0  0  0  0  0  0
    7.5740   11.7869   25.5182 C    0  0  0  0  0  0  0  0  0  0  0  0
    7.8950   10.4813   25.0454 C    0  0  0  0  0  0  0  0  0  0  0  0
    9.0845   10.2653   24.3411 O    0  0  0  0  0  0  0  0  0  0  0  0
    9.4602    9.0473   23.6496 C    0  0  0  0  0  0  0  0  0  0  0  0
    6.3366   11.9722   26.1874 C    0  0  0  0  0  0  0  0  0  0  0  0
    5.4761   10.9006   26.4350 C    0  0  0  0  0  0  0  0  0  0  0  0
    5.8031    9.6237   25.9818 C    0  0  0  0  0  0  0  0  0  0  0  0
    6.9929    9.4221   25.2784 C    0  0  0  0  0  0  0  0  0  0  0  0
   10.5952   15.1577   17.7779 H    0  0  0  0  0  0  0  0  0  0  0  0
   10.9070   13.9329   18.9896 H    0  0  0  0  0  0  0  0  0  0  0  0
   10.8600   14.2277   21.0759 H    0  0  0  0  0  0  0  0  0  0  0  0
   12.4282   16.1370   21.3758 H    0  0  0  0  0  0  0  0  0  0  0  0
   11.1304   17.1324   22.0284 H    0  0  0  0  0  0  0  0  0  0  0  0
   12.2604   14.5343   23.1888 H    0  0  0  0  0  0  0  0  0  0  0  0
   12.3314   16.1274   23.9105 H    0  0  0  0  0  0  0  0  0  0  0  0
   10.6985   14.5661   24.8990 H    0  0  0  0  0  0  0  0  0  0  0  0
    9.9788   16.1024   24.4871 H    0  0  0  0  0  0  0  0  0  0  0  0
    8.4200   14.5603   21.2898 H    0  0  0  0  0  0  0  0  0  0  0  0
    8.6525   16.1067   22.0459 H    0  0  0  0  0  0  0  0  0  0  0  0
    9.5352   12.6191   25.3813 H    0  0  0  0  0  0  0  0  0  0  0  0
    7.4340   14.6303   26.0364 H    0  0  0  0  0  0  0  0  0  0  0  0
    7.0087   16.9443   29.5853 H    0  0  0  0  0  0  0  0  0  0  0  0
    7.7100   17.9992   28.3568 H    0  0  0  0  0  0  0  0  0  0  0  0
    8.2605   18.1020   30.0281 H    0  0  0  0  0  0  0  0  0  0  0  0
   11.1954   16.3692   28.4493 H    0  0  0  0  0  0  0  0  0  0  0  0
   10.5978   17.9017   29.0581 H    0  0  0  0  0  0  0  0  0  0  0  0
   10.2129   17.3988   27.4081 H    0  0  0  0  0  0  0  0  0  0  0  0
    9.5077   16.1147   31.0928 H    0  0  0  0  0  0  0  0  0  0  0  0
   10.1317   14.8018   30.1116 H    0  0  0  0  0  0  0  0  0  0  0  0
    8.4093   14.8771   30.4749 H    0  0  0  0  0  0  0  0  0  0  0  0
    8.7349    8.8113   22.8665 H    0  0  0  0  0  0  0  0  0  0  0  0
    9.5312    8.2157   24.3529 H    0  0  0  0  0  0  0  0  0  0  0  0
   10.4389    9.1931   23.1928 H    0  0  0  0  0  0  0  0  0  0  0  0
    6.0097   12.9493   26.5279 H    0  0  0  0  0  0  0  0  0  0  0  0
    4.5418   11.0703   26.9578 H    0  0  0  0  0  0  0  0  0  0  0  0
    5.1291    8.7846   26.1561 H    0  0  0  0  0  0  0  0  0  0  0  0
    7.2001    8.4146   24.9333 H    0  0  0  0  0  0  0  0  0  0  0  0
 12 13  1  0  0  0  0
 10 12  1  0  0  0  0
  9 10  1  0  0  0  0
  7  9  1  0  0  0  0
  6  7  1  0  0  0  0
  5  6  1  0  0  0  0
  4  5  1  0  0  0  0
  2  4  1  0  0  0  0
  1  2  2  0  0  0  0
  3  2  1  0  0  0  0
 29  3  1  0  0  0  0
 30  3  1  0  0  0  0
 31  4  1  0  0  0  0
 32  5  1  0  0  0  0
 33  5  1  0  0  0  0
 34  6  1  0  0  0  0
 35  6  1  0  0  0  0
 36  7  1  0  0  0  0
 37  7  1  0  0  0  0
  8  4  1  0  0  0  0
 38  8  1  0  0  0  0
 39  8  1  0  0  0  0
 11 10  2  0  0  0  0
 40 12  1  0  0  0  0
 41 13  1  0  0  0  0
 14 13  1  0  0  0  0
 15 14  1  0  0  0  0
 16 15  1  0  0  0  0
 17 16  1  0  0  0  0
 42 17  1  0  0  0  0
 43 17  1  0  0  0  0
 44 17  1  0  0  0  0
 18 16  1  0  0  0  0
 45 18  1  0  0  0  0
 46 18  1  0  0  0  0
 47 18  1  0  0  0  0
 19 16  1  0  0  0  0
 48 19  1  0  0  0  0
 49 19  1  0  0  0  0
 50 19  1  0  0  0  0
 20 14  2  0  0  0  0
 21 12  1  0  0  0  0
 22 21  1  0  0  0  0
 28 22  2  0  0  0  0
 23 22  1  0  0  0  0
 24 23  1  0  0  0  0
 51 24  1  0  0  0  0
 52 24  1  0  0  0  0
 53 24  1  0  0  0  0
 25 21  2  0  0  0  0
 54 25  1  0  0  0  0
 26 25  1  0  0  0  0
 55 26  1  0  0  0  0
 27 26  2  0  0  0  0
 56 27  1  0  0  0  0
 57 28  1  0  0  0  0
  9  8  1  0  0  0  0
 28 27  1  0  0  0  0
M  END
>  <FittedScore>
-37.67

$$$$
