A71EV2A-x3884b_lowest-energy
  FITTED

 57 58     0  0  0  0  0  0  0999 V2000
    9.7477   16.8445   19.3838 O    0  0  0  0  0  0  0  0  0  0  0  0
   10.3212   15.8122   19.6843 C    0  0  0  0  0  0  0  0  0  0  0  0
   10.6594   14.9074   18.7436 N    0  0  0  0  0  0  0  0  0  0  0  0
   10.5312   15.3281   21.1194 C    0  0  0  0  0  0  0  0  0  0  0  0
   11.4912   16.2623   21.8992 C    0  0  0  0  0  0  0  0  0  0  0  0
   11.7650   15.6451   23.2867 C    0  0  0  0  0  0  0  0  0  0  0  0
   10.4709   15.2345   24.0452 C    0  0  0  0  0  0  0  0  0  0  0  0
    9.1988   15.1283   21.9062 C    0  0  0  0  0  0  0  0  0  0  0  0
    9.3758   14.5282   23.2752 N    0  0  0  0  0  0  0  0  0  0  0  0
    8.4636   13.6192   23.8085 C    0  0  0  0  0  0  0  0  0  0  0  0
    7.5300   13.2197   23.1274 O    0  0  0  0  0  0  0  0  0  0  0  0
    8.5627   13.1497   25.2886 C    0  0  0  0  0  0  0  0  0  0  0  0
    8.3575   14.3056   26.2035 N    0  0  0  0  0  0  0  0  0  0  0  0
    9.1814   14.7270   27.1883 C    0  0  0  0  0  0  0  0  0  0  0  0
    8.8465   15.9700   27.6285 O    0  0  0  0  0  0  0  0  0  0  0  0
    9.7485   16.9359   28.2962 C    0  0  0  0  0  0  0  0  0  0  0  0
   10.2185   16.3913   29.6870 C    0  0  0  0  0  0  0  0  0  0  0  0
    8.9009   18.2208   28.5212 C    0  0  0  0  0  0  0  0  0  0  0  0
   10.9572   17.2877   27.3674 C    0  0  0  0  0  0  0  0  0  0  0  0
   10.2043   14.1392   27.4959 O    0  0  0  0  0  0  0  0  0  0  0  0
    7.6138   11.9554   25.6085 C    0  0  0  0  0  0  0  0  0  0  0  0
    7.8713   10.6636   25.0577 C    0  0  0  0  0  0  0  0  0  0  0  0
    9.0063   10.4611   24.2561 O    0  0  0  0  0  0  0  0  0  0  0  0
    9.4917    9.1886   23.7593 C    0  0  0  0  0  0  0  0  0  0  0  0
    6.4331   12.1374   26.3757 C    0  0  0  0  0  0  0  0  0  0  0  0
    5.5538   11.0792   26.6184 C    0  0  0  0  0  0  0  0  0  0  0  0
    5.8152    9.8196   26.0819 C    0  0  0  0  0  0  0  0  0  0  0  0
    6.9547    9.6163   25.2986 C    0  0  0  0  0  0  0  0  0  0  0  0
   10.8983   13.9544   19.0169 H    0  0  0  0  0  0  0  0  0  0  0  0
   10.6568   15.1590   17.7671 H    0  0  0  0  0  0  0  0  0  0  0  0
   11.0123   14.3406   21.0879 H    0  0  0  0  0  0  0  0  0  0  0  0
   12.4328   16.3724   21.3514 H    0  0  0  0  0  0  0  0  0  0  0  0
   11.0655   17.2658   22.0084 H    0  0  0  0  0  0  0  0  0  0  0  0
   12.4076   14.7668   23.1648 H    0  0  0  0  0  0  0  0  0  0  0  0
   12.3280   16.3547   23.8986 H    0  0  0  0  0  0  0  0  0  0  0  0
   10.8405   14.6031   24.8501 H    0  0  0  0  0  0  0  0  0  0  0  0
   10.0387   16.1248   24.5078 H    0  0  0  0  0  0  0  0  0  0  0  0
    8.5554   14.5122   21.2723 H    0  0  0  0  0  0  0  0  0  0  0  0
    8.6763   16.0846   22.0160 H    0  0  0  0  0  0  0  0  0  0  0  0
    9.5722   12.7584   25.4495 H    0  0  0  0  0  0  0  0  0  0  0  0
    7.5427   14.8760   26.0066 H    0  0  0  0  0  0  0  0  0  0  0  0
   10.9899   15.6241   29.5942 H    0  0  0  0  0  0  0  0  0  0  0  0
    9.3853   15.9604   30.2493 H    0  0  0  0  0  0  0  0  0  0  0  0
   10.6452   17.1915   30.2984 H    0  0  0  0  0  0  0  0  0  0  0  0
    9.5055   19.0326   28.9349 H    0  0  0  0  0  0  0  0  0  0  0  0
    8.0813   18.0269   29.2203 H    0  0  0  0  0  0  0  0  0  0  0  0
    8.4590   18.5815   27.5898 H    0  0  0  0  0  0  0  0  0  0  0  0
   10.6132   17.6245   26.3886 H    0  0  0  0  0  0  0  0  0  0  0  0
   11.6153   16.4295   27.2048 H    0  0  0  0  0  0  0  0  0  0  0  0
   11.5764   18.0827   27.7878 H    0  0  0  0  0  0  0  0  0  0  0  0
    8.7913    8.7744   23.0327 H    0  0  0  0  0  0  0  0  0  0  0  0
    9.6316    8.5062   24.6004 H    0  0  0  0  0  0  0  0  0  0  0  0
   10.4596    9.3222   23.2670 H    0  0  0  0  0  0  0  0  0  0  0  0
    6.1658   13.1025   26.7980 H    0  0  0  0  0  0  0  0  0  0  0  0
    4.6610   11.2466   27.2151 H    0  0  0  0  0  0  0  0  0  0  0  0
    5.1222    8.9990   26.2562 H    0  0  0  0  0  0  0  0  0  0  0  0
    7.1054    8.6329   24.8679 H    0  0  0  0  0  0  0  0  0  0  0  0
 12 13  1  0  0  0  0
 10 12  1  0  0  0  0
  9 10  1  0  0  0  0
  7  9  1  0  0  0  0
  6  7  1  0  0  0  0
  5  6  1  0  0  0  0
  4  5  1  0  0  0  0
  2  4  1  0  0  0  0
  1  2  2  0  0  0  0
  3  2  1  0  0  0  0
 29  3  1  0  0  0  0
 30  3  1  0  0  0  0
 31  4  1  0  0  0  0
 32  5  1  0  0  0  0
 33  5  1  0  0  0  0
 34  6  1  0  0  0  0
 35  6  1  0  0  0  0
 36  7  1  0  0  0  0
 37  7  1  0  0  0  0
  8  4  1  0  0  0  0
 38  8  1  0  0  0  0
 39  8  1  0  0  0  0
 11 10  2  0  0  0  0
 40 12  1  0  0  0  0
 41 13  1  0  0  0  0
 14 13  1  0  0  0  0
 15 14  1  0  0  0  0
 16 15  1  0  0  0  0
 17 16  1  0  0  0  0
 42 17  1  0  0  0  0
 43 17  1  0  0  0  0
 44 17  1  0  0  0  0
 18 16  1  0  0  0  0
 45 18  1  0  0  0  0
 46 18  1  0  0  0  0
 47 18  1  0  0  0  0
 19 16  1  0  0  0  0
 48 19  1  0  0  0  0
 49 19  1  0  0  0  0
 50 19  1  0  0  0  0
 20 14  2  0  0  0  0
 21 12  1  0  0  0  0
 22 21  1  0  0  0  0
 28 22  2  0  0  0  0
 23 22  1  0  0  0  0
 24 23  1  0  0  0  0
 51 24  1  0  0  0  0
 52 24  1  0  0  0  0
 53 24  1  0  0  0  0
 25 21  2  0  0  0  0
 54 25  1  0  0  0  0
 26 25  1  0  0  0  0
 55 26  1  0  0  0  0
 27 26  2  0  0  0  0
 56 27  1  0  0  0  0
 57 28  1  0  0  0  0
  9  8  1  0  0  0  0
 28 27  1  0  0  0  0
M  END
>  <FittedScore>
-37.84

$$$$
