A71EV2A-x7071a_best-RMSD
  FITTED

 45 46     0  0  0  0  0  0  0999 V2000
    8.8124    8.9405   23.4467 C    0  0  0  0  0  0  0  0  0  0  0  0
    9.0418   10.6649   23.9605 S    0  0  0  0  0  0  0  0  0  0  0  0
    7.6277   11.0995   24.9883 C    0  0  0  0  0  0  0  0  0  0  0  0
    6.9522   10.1145   25.7409 C    0  0  0  0  0  0  0  0  0  0  0  0
    5.9359   10.4589   26.6382 C    0  0  0  0  0  0  0  0  0  0  0  0
    5.5925   11.8026   26.8149 C    0  0  0  0  0  0  0  0  0  0  0  0
    6.2433   12.7901   26.0675 C    0  0  0  0  0  0  0  0  0  0  0  0
    7.2206   12.4565   25.0984 C    0  0  0  0  0  0  0  0  0  0  0  0
    7.7705   13.5190   24.1030 C    0  0  0  0  0  0  0  0  0  0  0  0
    6.8737   14.6573   23.8856 N    0  0  0  0  0  0  0  0  0  0  0  0
    5.4316   14.5010   23.0302 S    0  0  0  0  0  0  0  0  0  0  0  0
    5.3153   16.0495   22.2301 C    0  0  0  0  0  0  0  0  0  0  0  0
    4.4211   14.4988   24.0310 O    0  0  0  0  0  0  0  0  0  0  0  0
    5.4727   13.4734   22.0214 O    0  0  0  0  0  0  0  0  0  0  0  0
    9.1655   14.0747   24.4139 C    0  0  0  0  0  0  0  0  0  0  0  0
    9.5953   14.0527   25.5528 O    0  0  0  0  0  0  0  0  0  0  0  0
    9.8929   14.6369   23.3878 N    0  0  0  0  0  0  0  0  0  0  0  0
   11.1526   15.4008   23.5387 C    0  0  0  0  0  0  0  0  0  0  0  0
   11.5196   16.0019   22.1689 C    0  0  0  0  0  0  0  0  0  0  0  0
   10.8127   15.0543   21.1907 C    0  0  0  0  0  0  0  0  0  0  0  0
   10.5117   15.6050   19.7993 C    0  0  0  0  0  0  0  0  0  0  0  0
   11.0683   14.9219   18.7800 N    0  0  0  0  0  0  0  0  0  0  0  0
    9.6830   16.4662   19.5832 O    0  0  0  0  0  0  0  0  0  0  0  0
    9.5502   14.6219   21.9519 C    0  0  0  0  0  0  0  0  0  0  0  0
    9.5649    8.7005   22.6938 H    0  0  0  0  0  0  0  0  0  0  0  0
    7.8162    8.8079   23.0175 H    0  0  0  0  0  0  0  0  0  0  0  0
    8.9537    8.2718   24.2988 H    0  0  0  0  0  0  0  0  0  0  0  0
    7.2322    9.0684   25.6814 H    0  0  0  0  0  0  0  0  0  0  0  0
    5.4335    9.6876   27.2159 H    0  0  0  0  0  0  0  0  0  0  0  0
    4.8186   12.0783   27.5259 H    0  0  0  0  0  0  0  0  0  0  0  0
    5.9486   13.8212   26.2373 H    0  0  0  0  0  0  0  0  0  0  0  0
    7.8054   12.9864   23.1514 H    0  0  0  0  0  0  0  0  0  0  0  0
    6.6737   15.2400   24.7008 H    0  0  0  0  0  0  0  0  0  0  0  0
    6.1614   16.1619   21.5445 H    0  0  0  0  0  0  0  0  0  0  0  0
    5.3208   16.8571   22.9674 H    0  0  0  0  0  0  0  0  0  0  0  0
    4.3818   16.0846   21.6596 H    0  0  0  0  0  0  0  0  0  0  0  0
   11.9444   14.7306   23.8843 H    0  0  0  0  0  0  0  0  0  0  0  0
   11.0299   16.1920   24.2830 H    0  0  0  0  0  0  0  0  0  0  0  0
   12.6004   16.0179   22.0097 H    0  0  0  0  0  0  0  0  0  0  0  0
   11.1411   17.0270   22.0881 H    0  0  0  0  0  0  0  0  0  0  0  0
   11.4538   14.1677   21.1019 H    0  0  0  0  0  0  0  0  0  0  0  0
   11.6592   14.1134   18.9507 H    0  0  0  0  0  0  0  0  0  0  0  0
   10.7867   15.1370   17.8315 H    0  0  0  0  0  0  0  0  0  0  0  0
    9.2669   13.6270   21.6052 H    0  0  0  0  0  0  0  0  0  0  0  0
    8.7104   15.3028   21.7788 H    0  0  0  0  0  0  0  0  0  0  0  0
  8  9  1  0  0  0  0
  7  8  2  0  0  0  0
  6  7  1  0  0  0  0
  5  6  2  0  0  0  0
  4  5  1  0  0  0  0
  3  4  2  0  0  0  0
  2  3  1  0  0  0  0
  1  2  1  0  0  0  0
 25  1  1  0  0  0  0
 26  1  1  0  0  0  0
 27  1  1  0  0  0  0
 28  4  1  0  0  0  0
 29  5  1  0  0  0  0
 30  6  1  0  0  0  0
 31  7  1  0  0  0  0
 10  9  1  0  0  0  0
 15  9  1  0  0  0  0
 32  9  1  0  0  0  0
 11 10  1  0  0  0  0
 33 10  1  0  0  0  0
 12 11  1  0  0  0  0
 13 11  2  0  0  0  0
 14 11  2  0  0  0  0
 34 12  1  0  0  0  0
 35 12  1  0  0  0  0
 36 12  1  0  0  0  0
 16 15  2  0  0  0  0
 17 15  1  0  0  0  0
 18 17  1  0  0  0  0
 19 18  1  0  0  0  0
 37 18  1  0  0  0  0
 38 18  1  0  0  0  0
 20 19  1  0  0  0  0
 39 19  1  0  0  0  0
 40 19  1  0  0  0  0
 21 20  1  0  0  0  0
 24 20  1  0  0  0  0
 41 20  1  0  0  0  0
 22 21  1  0  0  0  0
 23 21  2  0  0  0  0
 42 22  1  0  0  0  0
 43 22  1  0  0  0  0
 44 24  1  0  0  0  0
 45 24  1  0  0  0  0
  8  3  1  0  0  0  0
 24 17  1  0  0  0  0
M  END
>  <FittedScore>
-42.01

$$$$
