A71EV2A-x7043a_lowest-energy
  FITTED

 61 65     0  0  0  0  0  0  0999 V2000
    9.6792    8.6749   23.3527 C    0  0  0  0  0  0  0  0  0  0  0  0
    9.4733   10.4086   23.8783 S    0  0  0  0  0  0  0  0  0  0  0  0
    8.0338   10.4446   24.9482 C    0  0  0  0  0  0  0  0  0  0  0  0
    7.4049    9.2614   25.1897 N    0  0  0  0  0  0  0  0  0  0  0  0
    6.3096    9.2626   25.9878 C    0  0  0  0  0  0  0  0  0  0  0  0
    5.7602   10.3649   26.5437 N    0  0  0  0  0  0  0  0  0  0  0  0
    6.3487   11.5730   26.3011 C    0  0  0  0  0  0  0  0  0  0  0  0
    5.6991   12.6843   26.8206 N    0  0  0  0  0  0  0  0  0  0  0  0
    5.2968   12.7488   28.2613 C    0  0  0  0  0  0  0  0  0  0  0  0
    3.8042   12.3084   28.4772 C    0  0  0  0  0  0  0  0  0  0  0  0
    2.9228   12.7692   27.3812 N    0  0  0  0  0  0  0  0  0  0  0  0
    1.5587   12.7514   27.5397 N    0  0  0  0  0  0  0  0  0  0  0  0
    1.2080   13.2928   26.2016 C    0  0  0  0  0  0  0  0  0  0  0  0
    2.3029   13.5777   25.4513 C    0  0  0  0  0  0  0  0  0  0  0  0
    3.4036   13.2785   26.2033 C    0  0  0  0  0  0  0  0  0  0  0  0
    4.8801   13.5275   25.9063 C    0  0  0  0  0  0  0  0  0  0  0  0
    2.0426   14.4897   24.2905 C    0  0  0  0  0  0  0  0  0  0  0  0
    0.5458   14.8714   24.4707 C    0  0  0  0  0  0  0  0  0  0  0  0
    0.0406   14.1281   25.7477 C    0  0  0  0  0  0  0  0  0  0  0  0
    7.5407   11.6581   25.5157 C    0  0  0  0  0  0  0  0  0  0  0  0
    8.2668   12.9977   25.2572 C    0  0  0  0  0  0  0  0  0  0  0  0
    8.0886   13.5490   23.8285 C    0  0  0  0  0  0  0  0  0  0  0  0
    7.2879   13.0122   23.0783 O    0  0  0  0  0  0  0  0  0  0  0  0
    8.8716   14.6062   23.4018 N    0  0  0  0  0  0  0  0  0  0  0  0
    9.8443   15.3996   24.2300 C    0  0  0  0  0  0  0  0  0  0  0  0
   11.2919   15.3898   23.6645 C    0  0  0  0  0  0  0  0  0  0  0  0
   11.3359   15.8617   22.1871 C    0  0  0  0  0  0  0  0  0  0  0  0
   10.2767   15.1089   21.3250 C    0  0  0  0  0  0  0  0  0  0  0  0
   10.2612   15.6705   19.9077 C    0  0  0  0  0  0  0  0  0  0  0  0
   10.8118   14.8838   18.9645 N    0  0  0  0  0  0  0  0  0  0  0  0
    9.7363   16.7260   19.6076 O    0  0  0  0  0  0  0  0  0  0  0  0
    8.8615   15.1254   21.9923 C    0  0  0  0  0  0  0  0  0  0  0  0
   10.5567    8.6001   22.7056 H    0  0  0  0  0  0  0  0  0  0  0  0
    8.8038    8.3454   22.7967 H    0  0  0  0  0  0  0  0  0  0  0  0
    9.8323    8.0354   24.2256 H    0  0  0  0  0  0  0  0  0  0  0  0
    5.8322    8.3065   26.1878 H    0  0  0  0  0  0  0  0  0  0  0  0
    5.4134   13.7708   28.6357 H    0  0  0  0  0  0  0  0  0  0  0  0
    5.9463   12.1336   28.8912 H    0  0  0  0  0  0  0  0  0  0  0  0
    3.4650   12.6967   29.4416 H    0  0  0  0  0  0  0  0  0  0  0  0
    3.7531   11.2193   28.5559 H    0  0  0  0  0  0  0  0  0  0  0  0
    5.1107   14.5860   26.0387 H    0  0  0  0  0  0  0  0  0  0  0  0
    5.0634   13.2981   24.8517 H    0  0  0  0  0  0  0  0  0  0  0  0
    2.2161   13.9731   23.3438 H    0  0  0  0  0  0  0  0  0  0  0  0
    2.6895   15.3723   24.3362 H    0  0  0  0  0  0  0  0  0  0  0  0
   -0.0380   14.5699   23.5965 H    0  0  0  0  0  0  0  0  0  0  0  0
    0.4354   15.9524   24.5921 H    0  0  0  0  0  0  0  0  0  0  0  0
   -0.8218   13.4946   25.5214 H    0  0  0  0  0  0  0  0  0  0  0  0
   -0.2460   14.8398   26.5254 H    0  0  0  0  0  0  0  0  0  0  0  0
    9.3237   12.8400   25.4796 H    0  0  0  0  0  0  0  0  0  0  0  0
    7.9504   13.7605   25.9691 H    0  0  0  0  0  0  0  0  0  0  0  0
    9.8986   15.0762   25.2687 H    0  0  0  0  0  0  0  0  0  0  0  0
    9.4917   16.4355   24.2877 H    0  0  0  0  0  0  0  0  0  0  0  0
   11.7091   14.3815   23.7382 H    0  0  0  0  0  0  0  0  0  0  0  0
   11.9263   16.0435   24.2687 H    0  0  0  0  0  0  0  0  0  0  0  0
   12.3330   15.6807   21.7767 H    0  0  0  0  0  0  0  0  0  0  0  0
   11.1645   16.9422   22.1428 H    0  0  0  0  0  0  0  0  0  0  0  0
   10.5807   14.0561   21.2892 H    0  0  0  0  0  0  0  0  0  0  0  0
   11.0791   13.9277   19.2051 H    0  0  0  0  0  0  0  0  0  0  0  0
   10.7803   15.1755   17.9943 H    0  0  0  0  0  0  0  0  0  0  0  0
    8.1912   14.5622   21.3370 H    0  0  0  0  0  0  0  0  0  0  0  0
    8.4598   16.1450   21.9975 H    0  0  0  0  0  0  0  0  0  0  0  0
 20 21  1  0  0  0  0
  7 20  2  0  0  0  0
  6  7  1  0  0  0  0
  5  6  2  0  0  0  0
  4  5  1  0  0  0  0
  3  4  2  0  0  0  0
  2  3  1  0  0  0  0
  1  2  1  0  0  0  0
 33  1  1  0  0  0  0
 34  1  1  0  0  0  0
 35  1  1  0  0  0  0
 36  5  1  0  0  0  0
  8  7  1  0  0  0  0
  9  8  1  0  0  0  0
 10  9  1  0  0  0  0
 37  9  1  0  0  0  0
 38  9  1  0  0  0  0
 11 10  1  0  0  0  0
 39 10  1  0  0  0  0
 40 10  1  0  0  0  0
 12 11  1  0  0  0  0
 13 12  2  0  0  0  0
 14 13  1  0  0  0  0
 15 14  2  0  0  0  0
 17 14  1  0  0  0  0
 16 15  1  0  0  0  0
 41 16  1  0  0  0  0
 42 16  1  0  0  0  0
 18 17  1  0  0  0  0
 43 17  1  0  0  0  0
 44 17  1  0  0  0  0
 19 18  1  0  0  0  0
 45 18  1  0  0  0  0
 46 18  1  0  0  0  0
 47 19  1  0  0  0  0
 48 19  1  0  0  0  0
 22 21  1  0  0  0  0
 49 21  1  0  0  0  0
 50 21  1  0  0  0  0
 23 22  2  0  0  0  0
 24 22  1  0  0  0  0
 25 24  1  0  0  0  0
 26 25  1  0  0  0  0
 51 25  1  0  0  0  0
 52 25  1  0  0  0  0
 27 26  1  0  0  0  0
 53 26  1  0  0  0  0
 54 26  1  0  0  0  0
 28 27  1  0  0  0  0
 55 27  1  0  0  0  0
 56 27  1  0  0  0  0
 29 28  1  0  0  0  0
 32 28  1  0  0  0  0
 57 28  1  0  0  0  0
 30 29  1  0  0  0  0
 31 29  2  0  0  0  0
 58 30  1  0  0  0  0
 59 30  1  0  0  0  0
 60 32  1  0  0  0  0
 61 32  1  0  0  0  0
 15 11  1  0  0  0  0
 16  8  1  0  0  0  0
 19 13  1  0  0  0  0
 20  3  1  0  0  0  0
 32 24  1  0  0  0  0
M  END
>  <FittedScore>
-35.83

$$$$
