A71EV2A-x7043a_best-RMSD
  FITTED

 61 65     0  0  0  0  0  0  0999 V2000
    9.7035    8.5579   23.4707 C    0  0  0  0  0  0  0  0  0  0  0  0
    9.4889   10.3224   23.8715 S    0  0  0  0  0  0  0  0  0  0  0  0
    8.0622   10.4206   24.9510 C    0  0  0  0  0  0  0  0  0  0  0  0
    7.3949    9.2629   25.2175 N    0  0  0  0  0  0  0  0  0  0  0  0
    6.3075    9.3153   26.0238 C    0  0  0  0  0  0  0  0  0  0  0  0
    5.8042   10.4456   26.5659 N    0  0  0  0  0  0  0  0  0  0  0  0
    6.4384   11.6254   26.2927 C    0  0  0  0  0  0  0  0  0  0  0  0
    5.8471   12.7698   26.7996 N    0  0  0  0  0  0  0  0  0  0  0  0
    5.6831   12.9469   28.2743 C    0  0  0  0  0  0  0  0  0  0  0  0
    4.2697   12.4689   28.7647 C    0  0  0  0  0  0  0  0  0  0  0  0
    3.2053   12.7742   27.7780 N    0  0  0  0  0  0  0  0  0  0  0  0
    1.8841   12.6950   28.1488 N    0  0  0  0  0  0  0  0  0  0  0  0
    1.2997   13.0816   26.8391 C    0  0  0  0  0  0  0  0  0  0  0  0
    2.2458   13.3539   25.9029 C    0  0  0  0  0  0  0  0  0  0  0  0
    3.4631   13.1950   26.5002 C    0  0  0  0  0  0  0  0  0  0  0  0
    4.8614   13.4979   25.9596 C    0  0  0  0  0  0  0  0  0  0  0  0
    1.7484   14.1444   24.7271 C    0  0  0  0  0  0  0  0  0  0  0  0
    0.2826   14.4858   25.1247 C    0  0  0  0  0  0  0  0  0  0  0  0
    0.0224   13.8071   26.5067 C    0  0  0  0  0  0  0  0  0  0  0  0
    7.6220   11.6593   25.4979 C    0  0  0  0  0  0  0  0  0  0  0  0
    8.3706   12.9810   25.2037 C    0  0  0  0  0  0  0  0  0  0  0  0
    8.0643   13.5970   23.8288 C    0  0  0  0  0  0  0  0  0  0  0  0
    7.2652   13.0400   23.0927 O    0  0  0  0  0  0  0  0  0  0  0  0
    8.7833   14.7001   23.4071 N    0  0  0  0  0  0  0  0  0  0  0  0
    9.8222   15.4573   24.1976 C    0  0  0  0  0  0  0  0  0  0  0  0
   11.2425   15.4044   23.5620 C    0  0  0  0  0  0  0  0  0  0  0  0
   11.2250   15.8770   22.0890 C    0  0  0  0  0  0  0  0  0  0  0  0
   10.1154   15.1248   21.2966 C    0  0  0  0  0  0  0  0  0  0  0  0
   10.0854   15.6364   19.8672 C    0  0  0  0  0  0  0  0  0  0  0  0
   10.6867   14.8434   18.9550 N    0  0  0  0  0  0  0  0  0  0  0  0
    9.5532   16.6798   19.5494 O    0  0  0  0  0  0  0  0  0  0  0  0
    8.7271   15.2352   22.0077 C    0  0  0  0  0  0  0  0  0  0  0  0
    8.8378    8.1903   22.9177 H    0  0  0  0  0  0  0  0  0  0  0  0
    9.8167    7.9826   24.3917 H    0  0  0  0  0  0  0  0  0  0  0  0
   10.6037    8.4323   22.8671 H    0  0  0  0  0  0  0  0  0  0  0  0
    5.7981    8.3796   26.2470 H    0  0  0  0  0  0  0  0  0  0  0  0
    5.8109   14.0002   28.5380 H    0  0  0  0  0  0  0  0  0  0  0  0
    6.4550   12.4085   28.8315 H    0  0  0  0  0  0  0  0  0  0  0  0
    4.0580   12.9338   29.7311 H    0  0  0  0  0  0  0  0  0  0  0  0
    4.2963   11.3904   28.9484 H    0  0  0  0  0  0  0  0  0  0  0  0
    5.0439   14.5757   25.9787 H    0  0  0  0  0  0  0  0  0  0  0  0
    4.9073   13.1947   24.9103 H    0  0  0  0  0  0  0  0  0  0  0  0
    1.7839   13.5465   23.8131 H    0  0  0  0  0  0  0  0  0  0  0  0
    2.3459   15.0494   24.5871 H    0  0  0  0  0  0  0  0  0  0  0  0
   -0.4172   14.1085   24.3742 H    0  0  0  0  0  0  0  0  0  0  0  0
    0.1441   15.5683   25.1985 H    0  0  0  0  0  0  0  0  0  0  0  0
   -0.8118   13.1033   26.4497 H    0  0  0  0  0  0  0  0  0  0  0  0
   -0.2056   14.5534   27.2737 H    0  0  0  0  0  0  0  0  0  0  0  0
    9.4453   12.8006   25.2906 H    0  0  0  0  0  0  0  0  0  0  0  0
    8.1598   13.7210   25.9813 H    0  0  0  0  0  0  0  0  0  0  0  0
    9.9164   15.1188   25.2261 H    0  0  0  0  0  0  0  0  0  0  0  0
    9.5079   16.5041   24.2822 H    0  0  0  0  0  0  0  0  0  0  0  0
   11.6274   14.3824   23.6071 H    0  0  0  0  0  0  0  0  0  0  0  0
   11.9274   16.0315   24.1324 H    0  0  0  0  0  0  0  0  0  0  0  0
   12.1989   15.6879   21.6269 H    0  0  0  0  0  0  0  0  0  0  0  0
   11.0569   16.9600   22.0449 H    0  0  0  0  0  0  0  0  0  0  0  0
   10.3738   14.0578   21.2824 H    0  0  0  0  0  0  0  0  0  0  0  0
   10.9810   13.9069   19.2308 H    0  0  0  0  0  0  0  0  0  0  0  0
   10.6432   15.0854   17.9722 H    0  0  0  0  0  0  0  0  0  0  0  0
    7.9876   14.7269   21.3824 H    0  0  0  0  0  0  0  0  0  0  0  0
    8.3970   16.2807   22.0338 H    0  0  0  0  0  0  0  0  0  0  0  0
 20 21  1  0  0  0  0
  7 20  2  0  0  0  0
  6  7  1  0  0  0  0
  5  6  2  0  0  0  0
  4  5  1  0  0  0  0
  3  4  2  0  0  0  0
  2  3  1  0  0  0  0
  1  2  1  0  0  0  0
 33  1  1  0  0  0  0
 34  1  1  0  0  0  0
 35  1  1  0  0  0  0
 36  5  1  0  0  0  0
  8  7  1  0  0  0  0
  9  8  1  0  0  0  0
 10  9  1  0  0  0  0
 37  9  1  0  0  0  0
 38  9  1  0  0  0  0
 11 10  1  0  0  0  0
 39 10  1  0  0  0  0
 40 10  1  0  0  0  0
 12 11  1  0  0  0  0
 13 12  2  0  0  0  0
 14 13  1  0  0  0  0
 15 14  2  0  0  0  0
 17 14  1  0  0  0  0
 16 15  1  0  0  0  0
 41 16  1  0  0  0  0
 42 16  1  0  0  0  0
 18 17  1  0  0  0  0
 43 17  1  0  0  0  0
 44 17  1  0  0  0  0
 19 18  1  0  0  0  0
 45 18  1  0  0  0  0
 46 18  1  0  0  0  0
 47 19  1  0  0  0  0
 48 19  1  0  0  0  0
 22 21  1  0  0  0  0
 49 21  1  0  0  0  0
 50 21  1  0  0  0  0
 23 22  2  0  0  0  0
 24 22  1  0  0  0  0
 25 24  1  0  0  0  0
 26 25  1  0  0  0  0
 51 25  1  0  0  0  0
 52 25  1  0  0  0  0
 27 26  1  0  0  0  0
 53 26  1  0  0  0  0
 54 26  1  0  0  0  0
 28 27  1  0  0  0  0
 55 27  1  0  0  0  0
 56 27  1  0  0  0  0
 29 28  1  0  0  0  0
 32 28  1  0  0  0  0
 57 28  1  0  0  0  0
 30 29  1  0  0  0  0
 31 29  2  0  0  0  0
 58 30  1  0  0  0  0
 59 30  1  0  0  0  0
 60 32  1  0  0  0  0
 61 32  1  0  0  0  0
 15 11  1  0  0  0  0
 16  8  1  0  0  0  0
 19 13  1  0  0  0  0
 20  3  1  0  0  0  0
 32 24  1  0  0  0  0
M  END
>  <FittedScore>
-35.88

$$$$
