A71EV2A-x4977a_lowest-energy
  FITTED

 44 46     0  0  0  0  0  0  0999 V2000
    9.6801   16.7771   19.2946 O    0  0  0  0  0  0  0  0  0  0  0  0
   10.1749   15.7293   19.6555 C    0  0  0  0  0  0  0  0  0  0  0  0
   10.7294   14.8882   18.7576 N    0  0  0  0  0  0  0  0  0  0  0  0
   10.1090   15.2251   21.0917 C    0  0  0  0  0  0  0  0  0  0  0  0
   11.1311   15.9767   21.9980 C    0  0  0  0  0  0  0  0  0  0  0  0
   10.9954   15.5371   23.4817 C    0  0  0  0  0  0  0  0  0  0  0  0
    9.5196   15.5772   23.9643 C    0  0  0  0  0  0  0  0  0  0  0  0
    8.6635   15.3229   21.6663 C    0  0  0  0  0  0  0  0  0  0  0  0
    8.5860   14.8084   23.0696 N    0  0  0  0  0  0  0  0  0  0  0  0
    7.8284   13.7093   23.4076 C    0  0  0  0  0  0  0  0  0  0  0  0
    7.1222   13.1191   22.6031 O    0  0  0  0  0  0  0  0  0  0  0  0
    7.9182   13.2658   24.6894 N    0  0  0  0  0  0  0  0  0  0  0  0
    7.2514   12.1101   25.2102 C    0  0  0  0  0  0  0  0  0  0  0  0
    7.7319   10.8120   24.8946 C    0  0  0  0  0  0  0  0  0  0  0  0
    9.2446   10.5997   23.9409 S    0  0  0  0  0  0  0  0  0  0  0  0
    9.3203    8.8643   23.4008 C    0  0  0  0  0  0  0  0  0  0  0  0
    6.0819   12.2736   25.9906 C    0  0  0  0  0  0  0  0  0  0  0  0
    5.3908   11.1198   26.4533 C    0  0  0  0  0  0  0  0  0  0  0  0
    5.8644    9.8441   26.1257 C    0  0  0  0  0  0  0  0  0  0  0  0
    7.0141    9.6947   25.3555 C    0  0  0  0  0  0  0  0  0  0  0  0
    5.5385   13.5425   26.3175 C    0  0  0  0  0  0  0  0  0  0  0  0
    4.3692   13.6244   27.0841 C    0  0  0  0  0  0  0  0  0  0  0  0
    3.7615   12.4431   27.5217 C    0  0  0  0  0  0  0  0  0  0  0  0
    4.2660   11.2206   27.2071 N    0  0  0  0  0  0  0  0  0  0  0  0
   10.7468   15.1460   17.7813 H    0  0  0  0  0  0  0  0  0  0  0  0
   10.9864   13.9418   19.0279 H    0  0  0  0  0  0  0  0  0  0  0  0
   10.3848   14.1628   21.1091 H    0  0  0  0  0  0  0  0  0  0  0  0
   12.1485   15.7730   21.6518 H    0  0  0  0  0  0  0  0  0  0  0  0
   10.9783   17.0585   21.9248 H    0  0  0  0  0  0  0  0  0  0  0  0
   11.3909   14.5237   23.6018 H    0  0  0  0  0  0  0  0  0  0  0  0
   11.6037   16.1919   24.1100 H    0  0  0  0  0  0  0  0  0  0  0  0
    9.5084   15.2352   25.0003 H    0  0  0  0  0  0  0  0  0  0  0  0
    9.1825   16.6167   24.0145 H    0  0  0  0  0  0  0  0  0  0  0  0
    8.0003   14.7864   20.9814 H    0  0  0  0  0  0  0  0  0  0  0  0
    8.3069   16.3581   21.6491 H    0  0  0  0  0  0  0  0  0  0  0  0
    8.3775   13.8396   25.3941 H    0  0  0  0  0  0  0  0  0  0  0  0
   10.1767    8.7316   22.7351 H    0  0  0  0  0  0  0  0  0  0  0  0
    8.4059    8.6047   22.8609 H    0  0  0  0  0  0  0  0  0  0  0  0
    9.4477    8.2104   24.2627 H    0  0  0  0  0  0  0  0  0  0  0  0
    5.3395    8.9504   26.4626 H    0  0  0  0  0  0  0  0  0  0  0  0
    7.3275    8.6831   25.1375 H    0  0  0  0  0  0  0  0  0  0  0  0
    5.9949   14.4711   25.9849 H    0  0  0  0  0  0  0  0  0  0  0  0
    3.9404   14.5904   27.3362 H    0  0  0  0  0  0  0  0  0  0  0  0
    2.8591   12.4993   28.1258 H    0  0  0  0  0  0  0  0  0  0  0  0
  9 10  1  0  0  0  0
  7  9  1  0  0  0  0
  6  7  1  0  0  0  0
  5  6  1  0  0  0  0
  4  5  1  0  0  0  0
  2  4  1  0  0  0  0
  1  2  2  0  0  0  0
  3  2  1  0  0  0  0
 25  3  1  0  0  0  0
 26  3  1  0  0  0  0
 27  4  1  0  0  0  0
 28  5  1  0  0  0  0
 29  5  1  0  0  0  0
 30  6  1  0  0  0  0
 31  6  1  0  0  0  0
 32  7  1  0  0  0  0
 33  7  1  0  0  0  0
  8  4  1  0  0  0  0
 34  8  1  0  0  0  0
 35  8  1  0  0  0  0
 11 10  2  0  0  0  0
 12 10  1  0  0  0  0
 36 12  1  0  0  0  0
 13 12  1  0  0  0  0
 14 13  1  0  0  0  0
 20 14  2  0  0  0  0
 15 14  1  0  0  0  0
 16 15  1  0  0  0  0
 37 16  1  0  0  0  0
 38 16  1  0  0  0  0
 39 16  1  0  0  0  0
 17 13  2  0  0  0  0
 18 17  1  0  0  0  0
 24 18  1  0  0  0  0
 19 18  2  0  0  0  0
 40 19  1  0  0  0  0
 41 20  1  0  0  0  0
 21 17  1  0  0  0  0
 42 21  1  0  0  0  0
 22 21  2  0  0  0  0
 43 22  1  0  0  0  0
 23 22  1  0  0  0  0
 44 23  1  0  0  0  0
  9  8  1  0  0  0  0
 20 19  1  0  0  0  0
 24 23  2  0  0  0  0
M  END
>  <FittedScore>
-38.15

$$$$
