A71EV2A-x7032a_lowest-energy
  FITTED

 48 51     0  0  0  0  0  0  0999 V2000
    9.0900    8.9923   23.3188 C    0  0  0  0  0  0  0  0  0  0  0  0
    8.9633   10.6977   23.9521 S    0  0  0  0  0  0  0  0  0  0  0  0
    7.3743   10.8659   24.7792 C    0  0  0  0  0  0  0  0  0  0  0  0
    6.6953    9.7491   25.2903 C    0  0  0  0  0  0  0  0  0  0  0  0
    5.4642    9.8880   25.9330 C    0  0  0  0  0  0  0  0  0  0  0  0
    4.8562   11.1463   26.1178 C    0  0  0  0  0  0  0  0  0  0  0  0
    3.5416   11.2540   26.8350 C    0  0  0  0  0  0  0  0  0  0  0  0
    3.2217   10.4128   27.9400 C    0  0  0  0  0  0  0  0  0  0  0  0
    1.9551   10.4685   28.5254 C    0  0  0  0  0  0  0  0  0  0  0  0
    1.0140   11.3745   28.0214 C    0  0  0  0  0  0  0  0  0  0  0  0
    1.3021   12.2244   26.9976 N    0  0  0  0  0  0  0  0  0  0  0  0
    2.5423   12.1819   26.4298 C    0  0  0  0  0  0  0  0  0  0  0  0
    5.5484   12.2700   25.6083 C    0  0  0  0  0  0  0  0  0  0  0  0
    6.7983   12.1291   24.9681 C    0  0  0  0  0  0  0  0  0  0  0  0
    7.4915   13.2785   24.5965 O    0  0  0  0  0  0  0  0  0  0  0  0
    7.7140   13.6599   23.3145 C    0  0  0  0  0  0  0  0  0  0  0  0
    7.1227   13.1459   22.3799 O    0  0  0  0  0  0  0  0  0  0  0  0
    8.6666   14.6445   23.1700 N    0  0  0  0  0  0  0  0  0  0  0  0
    8.8031   15.4275   21.9069 C    0  0  0  0  0  0  0  0  0  0  0  0
   10.0178   14.9339   21.0895 C    0  0  0  0  0  0  0  0  0  0  0  0
   10.1784   15.6036   19.7327 C    0  0  0  0  0  0  0  0  0  0  0  0
   11.0324   15.0301   18.9046 N    0  0  0  0  0  0  0  0  0  0  0  0
    9.5497   16.5486   19.3373 O    0  0  0  0  0  0  0  0  0  0  0  0
   11.3764   14.9361   21.8780 C    0  0  0  0  0  0  0  0  0  0  0  0
   11.1791   14.4246   23.2930 C    0  0  0  0  0  0  0  0  0  0  0  0
   11.0734   15.4756   24.3569 C    0  0  0  0  0  0  0  0  0  0  0  0
    9.9053   14.5828   24.0637 C    0  0  0  0  0  0  0  0  0  0  0  0
    8.9803    8.2454   24.1096 H    0  0  0  0  0  0  0  0  0  0  0  0
   10.0708    8.8616   22.8475 H    0  0  0  0  0  0  0  0  0  0  0  0
    8.3058    8.8613   22.5672 H    0  0  0  0  0  0  0  0  0  0  0  0
    7.1136    8.7461   25.2345 H    0  0  0  0  0  0  0  0  0  0  0  0
    5.0060    8.9859   26.3106 H    0  0  0  0  0  0  0  0  0  0  0  0
    3.9496    9.7123   28.3458 H    0  0  0  0  0  0  0  0  0  0  0  0
    1.7088    9.8167   29.3586 H    0  0  0  0  0  0  0  0  0  0  0  0
    0.0254   11.4095   28.4742 H    0  0  0  0  0  0  0  0  0  0  0  0
    2.7524   12.8742   25.6169 H    0  0  0  0  0  0  0  0  0  0  0  0
    5.1425   13.2854   25.7099 H    0  0  0  0  0  0  0  0  0  0  0  0
    8.9513   16.4820   22.1577 H    0  0  0  0  0  0  0  0  0  0  0  0
    7.8907   15.3761   21.3039 H    0  0  0  0  0  0  0  0  0  0  0  0
    9.8058   13.8815   20.8478 H    0  0  0  0  0  0  0  0  0  0  0  0
   11.4409   14.1451   19.1729 H    0  0  0  0  0  0  0  0  0  0  0  0
   11.2268   15.4385   17.9973 H    0  0  0  0  0  0  0  0  0  0  0  0
   11.9226   15.8812   21.9030 H    0  0  0  0  0  0  0  0  0  0  0  0
   12.0397   14.2421   21.3411 H    0  0  0  0  0  0  0  0  0  0  0  0
   11.7345   13.5094   23.4904 H    0  0  0  0  0  0  0  0  0  0  0  0
   11.0338   16.5163   24.0522 H    0  0  0  0  0  0  0  0  0  0  0  0
   11.6653   15.2861   25.2516 H    0  0  0  0  0  0  0  0  0  0  0  0
    9.6673   13.8259   24.7996 H    0  0  0  0  0  0  0  0  0  0  0  0
 14 15  1  0  0  0  0
 13 14  2  0  0  0  0
  6 13  1  0  0  0  0
  5  6  2  0  0  0  0
  4  5  1  0  0  0  0
  3  4  2  0  0  0  0
  2  3  1  0  0  0  0
  1  2  1  0  0  0  0
 28  1  1  0  0  0  0
 29  1  1  0  0  0  0
 30  1  1  0  0  0  0
 31  4  1  0  0  0  0
 32  5  1  0  0  0  0
  7  6  1  0  0  0  0
  8  7  2  0  0  0  0
  9  8  1  0  0  0  0
 33  8  1  0  0  0  0
 10  9  2  0  0  0  0
 34  9  1  0  0  0  0
 11 10  1  0  0  0  0
 35 10  1  0  0  0  0
 12 11  2  0  0  0  0
 36 12  1  0  0  0  0
 37 13  1  0  0  0  0
 16 15  1  0  0  0  0
 17 16  2  0  0  0  0
 18 16  1  0  0  0  0
 19 18  1  0  0  0  0
 20 19  1  0  0  0  0
 38 19  1  0  0  0  0
 39 19  1  0  0  0  0
 21 20  1  0  0  0  0
 24 20  1  0  0  0  0
 40 20  1  0  0  0  0
 22 21  1  0  0  0  0
 23 21  2  0  0  0  0
 41 22  1  0  0  0  0
 42 22  1  0  0  0  0
 43 24  1  0  0  0  0
 44 24  1  0  0  0  0
 25 24  1  0  0  0  0
 26 25  1  0  0  0  0
 45 25  1  0  0  0  0
 46 26  1  0  0  0  0
 47 26  1  0  0  0  0
 27 26  1  0  0  0  0
 48 27  1  0  0  0  0
 12  7  1  0  0  0  0
 14  3  1  0  0  0  0
 27 18  1  0  0  0  0
 27 25  1  0  0  0  0
M  END
>  <FittedScore>
-30.51

$$$$
