A71EV2A-x2972a_best-RMSD
  FITTED

 32 34     0  0  0  0  0  0  0999 V2000
    9.6788   14.1628   24.3785 O    0  0  0  0  0  0  0  0  0  0  0  0
   10.1104   13.2034   23.7706 C    0  0  0  0  0  0  0  0  0  0  0  0
    9.5718   11.8986   24.0016 C    0  0  0  0  0  0  0  0  0  0  0  0
    9.9525   10.8000   23.4093 N    0  0  0  0  0  0  0  0  0  0  0  0
    8.4973   11.5179   24.9647 C    0  0  0  0  0  0  0  0  0  0  0  0
    8.3282   10.1569   24.8243 C    0  0  0  0  0  0  0  0  0  0  0  0
    7.3714    9.4480   25.5639 C    0  0  0  0  0  0  0  0  0  0  0  0
    6.5812   10.1618   26.4807 C    0  0  0  0  0  0  0  0  0  0  0  0
    6.7615   11.5510   26.6454 C    0  0  0  0  0  0  0  0  0  0  0  0
    7.7243   12.2432   25.8868 C    0  0  0  0  0  0  0  0  0  0  0  0
    9.2285    9.7509   23.8892 N    0  0  0  0  0  0  0  0  0  0  0  0
    9.4625    8.4054   23.3653 C    0  0  0  0  0  0  0  0  0  0  0  0
   11.0448   13.3072   22.7850 N    0  0  0  0  0  0  0  0  0  0  0  0
   11.7638   14.5192   22.3627 C    0  0  0  0  0  0  0  0  0  0  0  0
   11.0636   15.0916   21.1449 C    0  0  0  0  0  0  0  0  0  0  0  0
    9.6940   15.6820   21.1796 N    0  0  0  0  0  0  0  0  0  0  0  0
    9.4774   15.9933   19.7587 C    0  0  0  0  0  0  0  0  0  0  0  0
   10.5820   15.6060   19.0822 N    0  0  0  0  0  0  0  0  0  0  0  0
   11.5428   15.0440   19.8427 C    0  0  0  0  0  0  0  0  0  0  0  0
    7.2463    8.3744   25.4447 H    0  0  0  0  0  0  0  0  0  0  0  0
    5.8318    9.6380   27.0691 H    0  0  0  0  0  0  0  0  0  0  0  0
    6.1528   12.0923   27.3620 H    0  0  0  0  0  0  0  0  0  0  0  0
    7.8536   13.3121   26.0257 H    0  0  0  0  0  0  0  0  0  0  0  0
    9.8768    8.4167   22.3540 H    0  0  0  0  0  0  0  0  0  0  0  0
    8.5388    7.8245   23.3111 H    0  0  0  0  0  0  0  0  0  0  0  0
   10.1649    7.8611   24.0002 H    0  0  0  0  0  0  0  0  0  0  0  0
   11.1450   12.5066   22.1648 H    0  0  0  0  0  0  0  0  0  0  0  0
   12.7953   14.2493   22.1270 H    0  0  0  0  0  0  0  0  0  0  0  0
   11.8068   15.2663   23.1588 H    0  0  0  0  0  0  0  0  0  0  0  0
    8.5770   16.4496   19.3549 H    0  0  0  0  0  0  0  0  0  0  0  0
   10.5965   15.5611   18.0653 H    0  0  0  0  0  0  0  0  0  0  0  0
   12.4807   14.6218   19.4916 H    0  0  0  0  0  0  0  0  0  0  0  0
  3  2  1  0  0  0  0
  4  3  2  0  0  0  0
 11  4  1  0  0  0  0
  1  2  2  0  0  0  0
  5  3  1  0  0  0  0
 10  5  2  0  0  0  0
  6  5  1  0  0  0  0
  7  6  2  0  0  0  0
 20  7  1  0  0  0  0
  8  7  1  0  0  0  0
 21  8  1  0  0  0  0
  9  8  2  0  0  0  0
 22  9  1  0  0  0  0
 23 10  1  0  0  0  0
 12 11  1  0  0  0  0
 24 12  1  0  0  0  0
 25 12  1  0  0  0  0
 26 12  1  0  0  0  0
 13  2  1  0  0  0  0
 27 13  1  0  0  0  0
 14 13  1  0  0  0  0
 28 14  1  0  0  0  0
 29 14  1  0  0  0  0
 15 14  1  0  0  0  0
 19 15  2  0  0  0  0
 16 15  1  0  0  0  0
 17 16  2  0  0  0  0
 30 17  1  0  0  0  0
 18 17  1  0  0  0  0
 31 18  1  0  0  0  0
 32 19  1  0  0  0  0
 10  9  1  0  0  0  0
 11  6  1  0  0  0  0
 19 18  1  0  0  0  0
M  END
>  <FittedScore>
-37.97

$$$$
