A71EV2A-x2972a_lowest-energy
  FITTED

 32 34     0  0  0  0  0  0  0999 V2000
    9.6715   14.2073   24.3325 O    0  0  0  0  0  0  0  0  0  0  0  0
   10.0870   13.2463   23.7190 C    0  0  0  0  0  0  0  0  0  0  0  0
    9.5162   11.9510   23.9274 C    0  0  0  0  0  0  0  0  0  0  0  0
    9.8832   10.8556   23.3249 N    0  0  0  0  0  0  0  0  0  0  0  0
    8.4532   11.5733   24.9048 C    0  0  0  0  0  0  0  0  0  0  0  0
    8.2943   10.2094   24.7794 C    0  0  0  0  0  0  0  0  0  0  0  0
    7.3799    9.4866   25.5560 C    0  0  0  0  0  0  0  0  0  0  0  0
    6.6082   10.1966   26.4933 C    0  0  0  0  0  0  0  0  0  0  0  0
    6.7577   11.5944   26.6286 C    0  0  0  0  0  0  0  0  0  0  0  0
    7.6877   12.2962   25.8357 C    0  0  0  0  0  0  0  0  0  0  0  0
    9.1633    9.8080   23.8177 N    0  0  0  0  0  0  0  0  0  0  0  0
    9.4563    8.4422   23.3810 C    0  0  0  0  0  0  0  0  0  0  0  0
   11.0448   13.3304   22.7516 N    0  0  0  0  0  0  0  0  0  0  0  0
   11.8094   14.5271   22.3535 C    0  0  0  0  0  0  0  0  0  0  0  0
   11.1827   15.1071   21.0985 C    0  0  0  0  0  0  0  0  0  0  0  0
    9.8397   15.7503   21.0790 N    0  0  0  0  0  0  0  0  0  0  0  0
    9.6369   15.9477   19.6329 C    0  0  0  0  0  0  0  0  0  0  0  0
   10.7440   15.5017   18.9970 N    0  0  0  0  0  0  0  0  0  0  0  0
   11.6835   14.9710   19.8067 C    0  0  0  0  0  0  0  0  0  0  0  0
    7.2733    8.4103   25.4470 H    0  0  0  0  0  0  0  0  0  0  0  0
    5.9040    9.6605   27.1225 H    0  0  0  0  0  0  0  0  0  0  0  0
    6.1477   12.1308   27.3505 H    0  0  0  0  0  0  0  0  0  0  0  0
    7.7922   13.3704   25.9559 H    0  0  0  0  0  0  0  0  0  0  0  0
    9.9395    7.8835   24.1855 H    0  0  0  0  0  0  0  0  0  0  0  0
   10.1276    8.4130   22.5200 H    0  0  0  0  0  0  0  0  0  0  0  0
    8.5464    7.9029   23.1023 H    0  0  0  0  0  0  0  0  0  0  0  0
   11.1420   12.5271   22.1347 H    0  0  0  0  0  0  0  0  0  0  0  0
   12.8424   14.2281   22.1621 H    0  0  0  0  0  0  0  0  0  0  0  0
   11.8336   15.2760   23.1490 H    0  0  0  0  0  0  0  0  0  0  0  0
    8.7357   16.3539   19.1802 H    0  0  0  0  0  0  0  0  0  0  0  0
   10.7859   15.4349   17.9808 H    0  0  0  0  0  0  0  0  0  0  0  0
   12.6174   14.5063   19.4953 H    0  0  0  0  0  0  0  0  0  0  0  0
  3  2  1  0  0  0  0
  4  3  2  0  0  0  0
 11  4  1  0  0  0  0
  1  2  2  0  0  0  0
  5  3  1  0  0  0  0
 10  5  2  0  0  0  0
  6  5  1  0  0  0  0
  7  6  2  0  0  0  0
 20  7  1  0  0  0  0
  8  7  1  0  0  0  0
 21  8  1  0  0  0  0
  9  8  2  0  0  0  0
 22  9  1  0  0  0  0
 23 10  1  0  0  0  0
 12 11  1  0  0  0  0
 24 12  1  0  0  0  0
 25 12  1  0  0  0  0
 26 12  1  0  0  0  0
 13  2  1  0  0  0  0
 27 13  1  0  0  0  0
 14 13  1  0  0  0  0
 28 14  1  0  0  0  0
 29 14  1  0  0  0  0
 15 14  1  0  0  0  0
 19 15  2  0  0  0  0
 16 15  1  0  0  0  0
 17 16  2  0  0  0  0
 30 17  1  0  0  0  0
 18 17  1  0  0  0  0
 31 18  1  0  0  0  0
 32 19  1  0  0  0  0
 10  9  1  0  0  0  0
 11  6  1  0  0  0  0
 19 18  1  0  0  0  0
M  END
>  <FittedScore>
-37.97

$$$$
