A71EV2A-x3489a_best-RMSD
  FITTED

 46 48     0  0  0  0  0  0  0999 V2000
    9.8288   16.5621   19.3649 O    0  0  0  0  0  0  0  0  0  0  0  0
   10.4721   15.5821   19.7013 C    0  0  0  0  0  0  0  0  0  0  0  0
   10.9414   14.7140   18.7811 N    0  0  0  0  0  0  0  0  0  0  0  0
   10.6627   15.1446   21.1521 C    0  0  0  0  0  0  0  0  0  0  0  0
   11.6311   16.0763   21.9335 C    0  0  0  0  0  0  0  0  0  0  0  0
   11.8120   15.5497   23.3839 C    0  0  0  0  0  0  0  0  0  0  0  0
   10.4531   15.2702   24.0907 C    0  0  0  0  0  0  0  0  0  0  0  0
    9.3084   15.0341   21.9121 C    0  0  0  0  0  0  0  0  0  0  0  0
    9.4795   14.4449   23.2817 N    0  0  0  0  0  0  0  0  0  0  0  0
    8.8126   13.3064   23.6894 C    0  0  0  0  0  0  0  0  0  0  0  0
    7.9181   12.8165   23.0144 O    0  0  0  0  0  0  0  0  0  0  0  0
    9.3014   12.5834   24.9487 C    0  0  0  0  0  0  0  0  0  0  0  0
    8.4042   11.4265   25.3759 C    0  0  0  0  0  0  0  0  0  0  0  0
    8.4839   10.1120   24.9257 C    0  0  0  0  0  0  0  0  0  0  0  0
    9.4406    9.5723   23.8742 C    0  0  0  0  0  0  0  0  0  0  0  0
    7.3438   11.4839   26.2270 N    0  0  0  0  0  0  0  0  0  0  0  0
    6.6747   12.7559   26.6253 C    0  0  0  0  0  0  0  0  0  0  0  0
    5.5189   12.5616   27.6563 C    0  0  0  0  0  0  0  0  0  0  0  0
    4.6038   11.3498   27.3195 C    0  0  0  0  0  0  0  0  0  0  0  0
    5.4389   10.0541   27.1562 C    0  0  0  0  0  0  0  0  0  0  0  0
    6.7131   10.2849   26.3657 C    0  0  0  0  0  0  0  0  0  0  0  0
    7.4393    9.2924   25.5738 N    0  0  0  0  0  0  0  0  0  0  0  0
   10.8567   14.9286   17.7931 H    0  0  0  0  0  0  0  0  0  0  0  0
   11.3129   13.8095   19.0670 H    0  0  0  0  0  0  0  0  0  0  0  0
   11.1123   14.1412   21.1650 H    0  0  0  0  0  0  0  0  0  0  0  0
   12.6039   16.1233   21.4366 H    0  0  0  0  0  0  0  0  0  0  0  0
   11.2376   17.0966   21.9629 H    0  0  0  0  0  0  0  0  0  0  0  0
   12.4044   14.6306   23.3682 H    0  0  0  0  0  0  0  0  0  0  0  0
   12.3797   16.2798   23.9685 H    0  0  0  0  0  0  0  0  0  0  0  0
   10.7039   14.8361   25.0552 H    0  0  0  0  0  0  0  0  0  0  0  0
    9.9708   16.2224   24.3378 H    0  0  0  0  0  0  0  0  0  0  0  0
    8.6151   14.4630   21.2902 H    0  0  0  0  0  0  0  0  0  0  0  0
    8.8496   16.0230   22.0117 H    0  0  0  0  0  0  0  0  0  0  0  0
   10.3188   12.2220   24.7774 H    0  0  0  0  0  0  0  0  0  0  0  0
    9.3687   13.2635   25.7979 H    0  0  0  0  0  0  0  0  0  0  0  0
    9.4182   10.1878   22.9716 H    0  0  0  0  0  0  0  0  0  0  0  0
    9.1776    8.5500   23.5919 H    0  0  0  0  0  0  0  0  0  0  0  0
   10.4598    9.5681   24.2665 H    0  0  0  0  0  0  0  0  0  0  0  0
    6.2752   13.2623   25.7402 H    0  0  0  0  0  0  0  0  0  0  0  0
    7.3908   13.4518   27.0704 H    0  0  0  0  0  0  0  0  0  0  0  0
    4.9158   13.4733   27.6967 H    0  0  0  0  0  0  0  0  0  0  0  0
    5.9498   12.4244   28.6522 H    0  0  0  0  0  0  0  0  0  0  0  0
    4.0639   11.5521   26.3893 H    0  0  0  0  0  0  0  0  0  0  0  0
    3.8571   11.2155   28.1056 H    0  0  0  0  0  0  0  0  0  0  0  0
    4.8323    9.2910   26.6608 H    0  0  0  0  0  0  0  0  0  0  0  0
    5.7011    9.6608   28.1424 H    0  0  0  0  0  0  0  0  0  0  0  0
  9 10  1  0  0  0  0
  7  9  1  0  0  0  0
  6  7  1  0  0  0  0
  5  6  1  0  0  0  0
  4  5  1  0  0  0  0
  2  4  1  0  0  0  0
  1  2  2  0  0  0  0
  3  2  1  0  0  0  0
 23  3  1  0  0  0  0
 24  3  1  0  0  0  0
 25  4  1  0  0  0  0
 26  5  1  0  0  0  0
 27  5  1  0  0  0  0
 28  6  1  0  0  0  0
 29  6  1  0  0  0  0
 30  7  1  0  0  0  0
 31  7  1  0  0  0  0
  8  4  1  0  0  0  0
 32  8  1  0  0  0  0
 33  8  1  0  0  0  0
 11 10  2  0  0  0  0
 12 10  1  0  0  0  0
 34 12  1  0  0  0  0
 35 12  1  0  0  0  0
 13 12  1  0  0  0  0
 14 13  2  0  0  0  0
 22 14  1  0  0  0  0
 15 14  1  0  0  0  0
 36 15  1  0  0  0  0
 37 15  1  0  0  0  0
 38 15  1  0  0  0  0
 16 13  1  0  0  0  0
 17 16  1  0  0  0  0
 39 17  1  0  0  0  0
 40 17  1  0  0  0  0
 18 17  1  0  0  0  0
 41 18  1  0  0  0  0
 42 18  1  0  0  0  0
 19 18  1  0  0  0  0
 43 19  1  0  0  0  0
 44 19  1  0  0  0  0
 20 19  1  0  0  0  0
 45 20  1  0  0  0  0
 46 20  1  0  0  0  0
 21 16  1  0  0  0  0
  9  8  1  0  0  0  0
 21 20  1  0  0  0  0
 22 21  2  0  0  0  0
M  END
>  <FittedScore>
-29.89

$$$$
