A71EV2A-x4650a_best-RMSD
  FITTED

 39 40     0  0  0  0  0  0  0999 V2000
   10.1691   11.0775   25.1657 F    0  0  0  0  0  0  0  0  0  0  0  0
    9.2639   10.6806   24.2506 C    0  0  0  0  0  0  0  0  0  0  0  0
    9.5962    9.3970   24.0081 F    0  0  0  0  0  0  0  0  0  0  0  0
    9.4996   11.3326   23.0931 F    0  0  0  0  0  0  0  0  0  0  0  0
    7.8264   10.8660   24.8013 C    0  0  0  0  0  0  0  0  0  0  0  0
    7.0658    9.7236   25.1367 C    0  0  0  0  0  0  0  0  0  0  0  0
    5.8031    9.8253   25.7410 C    0  0  0  0  0  0  0  0  0  0  0  0
    5.2568   11.0780   26.0076 C    0  0  0  0  0  0  0  0  0  0  0  0
    5.9677   12.2276   25.6597 C    0  0  0  0  0  0  0  0  0  0  0  0
    7.2437   12.1450   25.0656 C    0  0  0  0  0  0  0  0  0  0  0  0
    7.9426   13.4702   24.7305 C    0  0  0  0  0  0  0  0  0  0  0  0
    7.8556   13.8846   23.2475 C    0  0  0  0  0  0  0  0  0  0  0  0
    7.0531   13.3211   22.5109 O    0  0  0  0  0  0  0  0  0  0  0  0
    8.6919   14.8760   22.7739 N    0  0  0  0  0  0  0  0  0  0  0  0
    9.4698   15.8509   23.6208 C    0  0  0  0  0  0  0  0  0  0  0  0
   10.9464   16.0257   23.1796 C    0  0  0  0  0  0  0  0  0  0  0  0
   11.0406   16.4414   21.6927 C    0  0  0  0  0  0  0  0  0  0  0  0
    8.7754   15.2482   21.3207 C    0  0  0  0  0  0  0  0  0  0  0  0
   10.2214   15.4885   20.7765 C    0  0  0  0  0  0  0  0  0  0  0  0
   10.2118   15.9925   19.3253 C    0  0  0  0  0  0  0  0  0  0  0  0
    9.7161   17.0391   18.9733 O    0  0  0  0  0  0  0  0  0  0  0  0
   10.7065   15.1665   18.3872 N    0  0  0  0  0  0  0  0  0  0  0  0
    7.4493    8.7243   24.9526 H    0  0  0  0  0  0  0  0  0  0  0  0
    5.2555    8.9230   26.0018 H    0  0  0  0  0  0  0  0  0  0  0  0
    4.2795   11.1611   26.4707 H    0  0  0  0  0  0  0  0  0  0  0  0
    5.5152   13.1990   25.8611 H    0  0  0  0  0  0  0  0  0  0  0  0
    7.5302   14.2735   25.3456 H    0  0  0  0  0  0  0  0  0  0  0  0
    8.9799   13.3864   25.0587 H    0  0  0  0  0  0  0  0  0  0  0  0
    8.9660   16.8267   23.5857 H    0  0  0  0  0  0  0  0  0  0  0  0
    9.4882   15.5932   24.6789 H    0  0  0  0  0  0  0  0  0  0  0  0
   11.4270   16.7861   23.8011 H    0  0  0  0  0  0  0  0  0  0  0  0
   11.4892   15.0893   23.3381 H    0  0  0  0  0  0  0  0  0  0  0  0
   10.6936   17.4737   21.5856 H    0  0  0  0  0  0  0  0  0  0  0  0
   12.0904   16.4133   21.3885 H    0  0  0  0  0  0  0  0  0  0  0  0
    8.1555   16.1430   21.1558 H    0  0  0  0  0  0  0  0  0  0  0  0
    8.3396   14.4682   20.6877 H    0  0  0  0  0  0  0  0  0  0  0  0
   10.7267   14.5118   20.8137 H    0  0  0  0  0  0  0  0  0  0  0  0
   10.9931   14.2200   18.6083 H    0  0  0  0  0  0  0  0  0  0  0  0
   10.6730   15.4500   17.4137 H    0  0  0  0  0  0  0  0  0  0  0  0
 11 12  1  0  0  0  0
 10 11  1  0  0  0  0
  9 10  2  0  0  0  0
  8  9  1  0  0  0  0
  7  8  2  0  0  0  0
  6  7  1  0  0  0  0
  5  6  2  0  0  0  0
  2  5  1  0  0  0  0
  1  2  1  0  0  0  0
  3  2  1  0  0  0  0
  4  2  1  0  0  0  0
 23  6  1  0  0  0  0
 24  7  1  0  0  0  0
 25  8  1  0  0  0  0
 26  9  1  0  0  0  0
 27 11  1  0  0  0  0
 28 11  1  0  0  0  0
 13 12  2  0  0  0  0
 14 12  1  0  0  0  0
 15 14  1  0  0  0  0
 29 15  1  0  0  0  0
 30 15  1  0  0  0  0
 16 15  1  0  0  0  0
 31 16  1  0  0  0  0
 32 16  1  0  0  0  0
 17 16  1  0  0  0  0
 33 17  1  0  0  0  0
 34 17  1  0  0  0  0
 18 14  1  0  0  0  0
 35 18  1  0  0  0  0
 36 18  1  0  0  0  0
 19 17  1  0  0  0  0
 20 19  1  0  0  0  0
 37 19  1  0  0  0  0
 21 20  2  0  0  0  0
 22 20  1  0  0  0  0
 38 22  1  0  0  0  0
 39 22  1  0  0  0  0
 10  5  1  0  0  0  0
 19 18  1  0  0  0  0
M  END
>  <FittedScore>
-35.28

$$$$
