A71EV2A-x4840a_best-RMSD
  FITTED

 40 41     0  0  0  0  0  0  0999 V2000
    9.7560   16.6687   19.2640 O    0  0  0  0  0  0  0  0  0  0  0  0
   10.2870   15.6417   19.6443 C    0  0  0  0  0  0  0  0  0  0  0  0
   10.8253   14.7910   18.7556 N    0  0  0  0  0  0  0  0  0  0  0  0
   10.3201   15.1804   21.0996 C    0  0  0  0  0  0  0  0  0  0  0  0
   11.2887   16.0557   21.9415 C    0  0  0  0  0  0  0  0  0  0  0  0
   11.3270   15.5521   23.4016 C    0  0  0  0  0  0  0  0  0  0  0  0
    9.9032   15.4301   24.0063 C    0  0  0  0  0  0  0  0  0  0  0  0
    8.9012   15.1374   21.7574 C    0  0  0  0  0  0  0  0  0  0  0  0
    8.9252   14.6370   23.1747 N    0  0  0  0  0  0  0  0  0  0  0  0
    8.1006   13.6239   23.6333 C    0  0  0  0  0  0  0  0  0  0  0  0
    7.2906   13.0749   22.9004 O    0  0  0  0  0  0  0  0  0  0  0  0
    8.2780   13.1182   25.0773 C    0  0  0  0  0  0  0  0  0  0  0  0
    7.4911   11.8495   25.4548 C    0  0  0  0  0  0  0  0  0  0  0  0
    7.8266   10.5258   25.0084 C    0  0  0  0  0  0  0  0  0  0  0  0
    8.9933   10.2240   24.0449 C    0  0  0  0  0  0  0  0  0  0  0  0
    9.7027   11.0436   23.5084 O    0  0  0  0  0  0  0  0  0  0  0  0
    9.2358    8.9380   23.7176 N    0  0  0  0  0  0  0  0  0  0  0  0
    6.4081   12.0488   26.3415 C    0  0  0  0  0  0  0  0  0  0  0  0
    5.6704   10.9710   26.8303 C    0  0  0  0  0  0  0  0  0  0  0  0
    5.9932    9.6786   26.4246 C    0  0  0  0  0  0  0  0  0  0  0  0
    7.0329    9.4652   25.5123 C    0  0  0  0  0  0  0  0  0  0  0  0
   10.8960   15.0521   17.7789 H    0  0  0  0  0  0  0  0  0  0  0  0
   11.0988   13.8502   19.0361 H    0  0  0  0  0  0  0  0  0  0  0  0
   10.6972   14.1517   21.1335 H    0  0  0  0  0  0  0  0  0  0  0  0
   12.2989   16.0216   21.5237 H    0  0  0  0  0  0  0  0  0  0  0  0
   10.9708   17.1044   21.9247 H    0  0  0  0  0  0  0  0  0  0  0  0
   11.8315   14.5803   23.4438 H    0  0  0  0  0  0  0  0  0  0  0  0
   11.9213   16.2440   24.0081 H    0  0  0  0  0  0  0  0  0  0  0  0
   10.0430   15.0460   25.0140 H    0  0  0  0  0  0  0  0  0  0  0  0
    9.4903   16.4361   24.1483 H    0  0  0  0  0  0  0  0  0  0  0  0
    8.2648   14.5276   21.1124 H    0  0  0  0  0  0  0  0  0  0  0  0
    8.4538   16.1395   21.7454 H    0  0  0  0  0  0  0  0  0  0  0  0
    9.3278   12.8996   25.2922 H    0  0  0  0  0  0  0  0  0  0  0  0
    8.0248   13.9418   25.7529 H    0  0  0  0  0  0  0  0  0  0  0  0
    9.9301    8.7316   23.0189 H    0  0  0  0  0  0  0  0  0  0  0  0
    8.5851    8.2079   23.9711 H    0  0  0  0  0  0  0  0  0  0  0  0
    6.1414   13.0467   26.6811 H    0  0  0  0  0  0  0  0  0  0  0  0
    4.8539   11.1395   27.5285 H    0  0  0  0  0  0  0  0  0  0  0  0
    5.4155    8.8320   26.7949 H    0  0  0  0  0  0  0  0  0  0  0  0
    7.2054    8.4363   25.2178 H    0  0  0  0  0  0  0  0  0  0  0  0
  9 10  1  0  0  0  0
  7  9  1  0  0  0  0
  6  7  1  0  0  0  0
  5  6  1  0  0  0  0
  4  5  1  0  0  0  0
  2  4  1  0  0  0  0
  1  2  2  0  0  0  0
  3  2  1  0  0  0  0
 22  3  1  0  0  0  0
 23  3  1  0  0  0  0
 24  4  1  0  0  0  0
 25  5  1  0  0  0  0
 26  5  1  0  0  0  0
 27  6  1  0  0  0  0
 28  6  1  0  0  0  0
 29  7  1  0  0  0  0
 30  7  1  0  0  0  0
  8  4  1  0  0  0  0
 31  8  1  0  0  0  0
 32  8  1  0  0  0  0
 11 10  2  0  0  0  0
 12 10  1  0  0  0  0
 33 12  1  0  0  0  0
 34 12  1  0  0  0  0
 13 12  1  0  0  0  0
 14 13  1  0  0  0  0
 21 14  2  0  0  0  0
 15 14  1  0  0  0  0
 16 15  2  0  0  0  0
 17 15  1  0  0  0  0
 35 17  1  0  0  0  0
 36 17  1  0  0  0  0
 18 13  2  0  0  0  0
 37 18  1  0  0  0  0
 19 18  1  0  0  0  0
 38 19  1  0  0  0  0
 20 19  2  0  0  0  0
 39 20  1  0  0  0  0
 40 21  1  0  0  0  0
  9  8  1  0  0  0  0
 21 20  1  0  0  0  0
M  END
>  <FittedScore>
-31.41

$$$$
