A71EV2A-x4840a_lowest-energy
  FITTED

 40 41     0  0  0  0  0  0  0999 V2000
    9.7543   16.6819   19.3091 O    0  0  0  0  0  0  0  0  0  0  0  0
   10.2314   15.6248   19.6770 C    0  0  0  0  0  0  0  0  0  0  0  0
   10.8310   14.8105   18.7898 N    0  0  0  0  0  0  0  0  0  0  0  0
   10.2527   15.1430   21.1273 C    0  0  0  0  0  0  0  0  0  0  0  0
   11.3433   15.8984   21.9391 C    0  0  0  0  0  0  0  0  0  0  0  0
   11.3860   15.3724   23.3941 C    0  0  0  0  0  0  0  0  0  0  0  0
    9.9763   15.3885   24.0425 C    0  0  0  0  0  0  0  0  0  0  0  0
    8.8650   15.2298   21.8386 C    0  0  0  0  0  0  0  0  0  0  0  0
    8.9140   14.6840   23.2400 N    0  0  0  0  0  0  0  0  0  0  0  0
    8.1040   13.6550   23.6900 C    0  0  0  0  0  0  0  0  0  0  0  0
    7.2846   13.1173   22.9570 O    0  0  0  0  0  0  0  0  0  0  0  0
    8.3185   13.1073   25.1157 C    0  0  0  0  0  0  0  0  0  0  0  0
    7.5226   11.8395   25.4784 C    0  0  0  0  0  0  0  0  0  0  0  0
    7.8336   10.5208   24.9975 C    0  0  0  0  0  0  0  0  0  0  0  0
    8.9510   10.2319   23.9763 C    0  0  0  0  0  0  0  0  0  0  0  0
    9.6148   11.0662   23.4017 O    0  0  0  0  0  0  0  0  0  0  0  0
    9.2329    8.9486   23.6683 N    0  0  0  0  0  0  0  0  0  0  0  0
    6.4719   12.0254   26.4046 C    0  0  0  0  0  0  0  0  0  0  0  0
    5.7459   10.9409   26.8987 C    0  0  0  0  0  0  0  0  0  0  0  0
    6.0488    9.6553   26.4607 C    0  0  0  0  0  0  0  0  0  0  0  0
    7.0572    9.4541   25.5147 C    0  0  0  0  0  0  0  0  0  0  0  0
   10.9072   15.0907   17.8195 H    0  0  0  0  0  0  0  0  0  0  0  0
   11.1241   13.8730   19.0605 H    0  0  0  0  0  0  0  0  0  0  0  0
   10.5230   14.0791   21.1452 H    0  0  0  0  0  0  0  0  0  0  0  0
   12.3233   15.7589   21.4745 H    0  0  0  0  0  0  0  0  0  0  0  0
   11.1390   16.9743   21.9394 H    0  0  0  0  0  0  0  0  0  0  0  0
   11.7849   14.3529   23.4032 H    0  0  0  0  0  0  0  0  0  0  0  0
   12.0684   15.9874   23.9860 H    0  0  0  0  0  0  0  0  0  0  0  0
   10.0971   15.0079   25.0538 H    0  0  0  0  0  0  0  0  0  0  0  0
    9.6636   16.4291   24.1820 H    0  0  0  0  0  0  0  0  0  0  0  0
    8.1328   14.7124   21.2131 H    0  0  0  0  0  0  0  0  0  0  0  0
    8.5323   16.2730   21.8743 H    0  0  0  0  0  0  0  0  0  0  0  0
    9.3731   12.8727   25.2873 H    0  0  0  0  0  0  0  0  0  0  0  0
    8.0913   13.9093   25.8241 H    0  0  0  0  0  0  0  0  0  0  0  0
    8.6046    8.1952   23.9224 H    0  0  0  0  0  0  0  0  0  0  0  0
    9.9875    8.7474   23.0318 H    0  0  0  0  0  0  0  0  0  0  0  0
    6.2195   13.0207   26.7681 H    0  0  0  0  0  0  0  0  0  0  0  0
    4.9523   11.1007   27.6241 H    0  0  0  0  0  0  0  0  0  0  0  0
    5.4919    8.8047   26.8445 H    0  0  0  0  0  0  0  0  0  0  0  0
    7.2243    8.4288   25.2027 H    0  0  0  0  0  0  0  0  0  0  0  0
  9 10  1  0  0  0  0
  7  9  1  0  0  0  0
  6  7  1  0  0  0  0
  5  6  1  0  0  0  0
  4  5  1  0  0  0  0
  2  4  1  0  0  0  0
  1  2  2  0  0  0  0
  3  2  1  0  0  0  0
 22  3  1  0  0  0  0
 23  3  1  0  0  0  0
 24  4  1  0  0  0  0
 25  5  1  0  0  0  0
 26  5  1  0  0  0  0
 27  6  1  0  0  0  0
 28  6  1  0  0  0  0
 29  7  1  0  0  0  0
 30  7  1  0  0  0  0
  8  4  1  0  0  0  0
 31  8  1  0  0  0  0
 32  8  1  0  0  0  0
 11 10  2  0  0  0  0
 12 10  1  0  0  0  0
 33 12  1  0  0  0  0
 34 12  1  0  0  0  0
 13 12  1  0  0  0  0
 14 13  1  0  0  0  0
 21 14  2  0  0  0  0
 15 14  1  0  0  0  0
 16 15  2  0  0  0  0
 17 15  1  0  0  0  0
 35 17  1  0  0  0  0
 36 17  1  0  0  0  0
 18 13  2  0  0  0  0
 37 18  1  0  0  0  0
 19 18  1  0  0  0  0
 38 19  1  0  0  0  0
 20 19  2  0  0  0  0
 39 20  1  0  0  0  0
 40 21  1  0  0  0  0
  9  8  1  0  0  0  0
 21 20  1  0  0  0  0
M  END
>  <FittedScore>
-31.82

$$$$
