A71EV2A-x4514a_best-RMSD
  FITTED

 40 42     0  0  0  0  0  0  0999 V2000
    6.8698   13.1862   22.4410 O    0  0  0  0  0  0  0  0  0  0  0  0
    7.4746   13.5819   23.4271 C    0  0  0  0  0  0  0  0  0  0  0  0
    8.5198   14.4775   23.1892 N    0  0  0  0  0  0  0  0  0  0  0  0
    9.7007   14.7825   24.0864 C    0  0  0  0  0  0  0  0  0  0  0  0
   11.1161   14.7737   23.4294 C    0  0  0  0  0  0  0  0  0  0  0  0
   11.1593   15.4659   22.0404 C    0  0  0  0  0  0  0  0  0  0  0  0
    8.6441   15.2409   21.8982 C    0  0  0  0  0  0  0  0  0  0  0  0
    9.9855   14.9420   21.1699 C    0  0  0  0  0  0  0  0  0  0  0  0
   10.0455   15.4784   19.7447 C    0  0  0  0  0  0  0  0  0  0  0  0
    9.5547   16.5341   19.3904 O    0  0  0  0  0  0  0  0  0  0  0  0
   10.6223   14.6581   18.8425 N    0  0  0  0  0  0  0  0  0  0  0  0
    7.3765   12.8330   24.8159 C    0  0  0  0  0  0  0  0  0  0  0  0
    7.3412   13.9436   25.9481 C    0  0  0  0  0  0  0  0  0  0  0  0
    6.0662   13.2126   26.4828 C    0  0  0  0  0  0  0  0  0  0  0  0
    5.7967   12.8278   24.9929 C    0  0  0  0  0  0  0  0  0  0  0  0
    8.1145   11.5040   24.8267 C    0  0  0  0  0  0  0  0  0  0  0  0
    7.6536   10.3130   25.3599 C    0  0  0  0  0  0  0  0  0  0  0  0
    8.4645    9.2895   24.9555 O    0  0  0  0  0  0  0  0  0  0  0  0
    9.4915    9.8592   24.2502 C    0  0  0  0  0  0  0  0  0  0  0  0
    9.2851   11.2150   24.1447 C    0  0  0  0  0  0  0  0  0  0  0  0
    9.5313   15.7519   24.5619 H    0  0  0  0  0  0  0  0  0  0  0  0
    9.7914   14.0612   24.8909 H    0  0  0  0  0  0  0  0  0  0  0  0
   11.8282   15.2625   24.0975 H    0  0  0  0  0  0  0  0  0  0  0  0
   11.4655   13.7432   23.3130 H    0  0  0  0  0  0  0  0  0  0  0  0
   11.0977   16.5544   22.1593 H    0  0  0  0  0  0  0  0  0  0  0  0
   12.1170   15.2583   21.5520 H    0  0  0  0  0  0  0  0  0  0  0  0
    8.5600   16.3097   22.1219 H    0  0  0  0  0  0  0  0  0  0  0  0
    7.8196   15.0536   21.2029 H    0  0  0  0  0  0  0  0  0  0  0  0
   10.0638   13.8480   21.1185 H    0  0  0  0  0  0  0  0  0  0  0  0
   10.9070   13.7196   19.1158 H    0  0  0  0  0  0  0  0  0  0  0  0
   10.6273   14.9182   17.8636 H    0  0  0  0  0  0  0  0  0  0  0  0
    8.1842   13.9510   26.6484 H    0  0  0  0  0  0  0  0  0  0  0  0
    7.1563   14.9816   25.6405 H    0  0  0  0  0  0  0  0  0  0  0  0
    6.2555   12.3771   27.1658 H    0  0  0  0  0  0  0  0  0  0  0  0
    5.3120   13.8548   26.9483 H    0  0  0  0  0  0  0  0  0  0  0  0
    5.2897   11.8741   24.8250 H    0  0  0  0  0  0  0  0  0  0  0  0
    5.1978   13.5886   24.4728 H    0  0  0  0  0  0  0  0  0  0  0  0
    6.7418   10.1814   25.9317 H    0  0  0  0  0  0  0  0  0  0  0  0
   10.3309    9.3139   23.8385 H    0  0  0  0  0  0  0  0  0  0  0  0
    9.9059   11.9024   23.5853 H    0  0  0  0  0  0  0  0  0  0  0  0
  3  2  1  0  0  0  0
  4  3  1  0  0  0  0
 21  4  1  0  0  0  0
  1  2  2  0  0  0  0
 22  4  1  0  0  0  0
  5  4  1  0  0  0  0
 23  5  1  0  0  0  0
 24  5  1  0  0  0  0
  6  5  1  0  0  0  0
 25  6  1  0  0  0  0
 26  6  1  0  0  0  0
  7  3  1  0  0  0  0
 27  7  1  0  0  0  0
 28  7  1  0  0  0  0
  8  6  1  0  0  0  0
  9  8  1  0  0  0  0
 29  8  1  0  0  0  0
 10  9  2  0  0  0  0
 11  9  1  0  0  0  0
 30 11  1  0  0  0  0
 31 11  1  0  0  0  0
 12  2  1  0  0  0  0
 15 12  1  0  0  0  0
 13 12  1  0  0  0  0
 32 13  1  0  0  0  0
 33 13  1  0  0  0  0
 14 13  1  0  0  0  0
 34 14  1  0  0  0  0
 35 14  1  0  0  0  0
 36 15  1  0  0  0  0
 37 15  1  0  0  0  0
 16 12  1  0  0  0  0
 20 16  1  0  0  0  0
 17 16  2  0  0  0  0
 38 17  1  0  0  0  0
 18 17  1  0  0  0  0
 19 18  1  0  0  0  0
 39 19  1  0  0  0  0
 40 20  1  0  0  0  0
  8  7  1  0  0  0  0
 15 14  1  0  0  0  0
 20 19  2  0  0  0  0
M  END
>  <FittedScore>
-30.98

$$$$
