A71EV2A-x3218a_lowest-energy
  FITTED

 39 41     0  0  0  0  0  0  0999 V2000
    7.3531   12.8992   23.0086 O    0  0  0  0  0  0  0  0  0  0  0  0
    8.2175   13.4119   23.7025 C    0  0  0  0  0  0  0  0  0  0  0  0
    8.8614   14.5624   23.2852 N    0  0  0  0  0  0  0  0  0  0  0  0
    9.7134   15.4723   24.1249 C    0  0  0  0  0  0  0  0  0  0  0  0
   11.1674   15.6043   23.5989 C    0  0  0  0  0  0  0  0  0  0  0  0
   11.1856   16.0544   22.1113 C    0  0  0  0  0  0  0  0  0  0  0  0
    8.8429   15.0419   21.8607 C    0  0  0  0  0  0  0  0  0  0  0  0
   10.2655   15.1437   21.2432 C    0  0  0  0  0  0  0  0  0  0  0  0
   10.2314   15.6078   19.7839 C    0  0  0  0  0  0  0  0  0  0  0  0
    9.7158   16.6512   19.4228 O    0  0  0  0  0  0  0  0  0  0  0  0
   10.6851   14.7269   18.8711 N    0  0  0  0  0  0  0  0  0  0  0  0
    8.7495   12.6264   24.9257 C    0  0  0  0  0  0  0  0  0  0  0  0
    7.6457   11.8518   25.6387 C    0  0  0  0  0  0  0  0  0  0  0  0
    6.6493   12.3118   26.4720 C    0  0  0  0  0  0  0  0  0  0  0  0
    5.8097   11.1928   26.9691 N    0  0  0  0  0  0  0  0  0  0  0  0
    6.4388   10.1599   26.3327 N    0  0  0  0  0  0  0  0  0  0  0  0
    7.5008   10.4898   25.5569 C    0  0  0  0  0  0  0  0  0  0  0  0
    8.3335    9.6754   24.8200 N    0  0  0  0  0  0  0  0  0  0  0  0
    9.3995   10.2664   23.9812 C    0  0  0  0  0  0  0  0  0  0  0  0
    9.9037   11.6581   24.5064 C    0  0  0  0  0  0  0  0  0  0  0  0
    9.2507   16.4645   24.1275 H    0  0  0  0  0  0  0  0  0  0  0  0
    9.7368   15.2066   25.1795 H    0  0  0  0  0  0  0  0  0  0  0  0
   11.7063   16.3345   24.2044 H    0  0  0  0  0  0  0  0  0  0  0  0
   11.6867   14.6486   23.7091 H    0  0  0  0  0  0  0  0  0  0  0  0
   10.8468   17.0936   22.0474 H    0  0  0  0  0  0  0  0  0  0  0  0
   12.2087   16.0308   21.7295 H    0  0  0  0  0  0  0  0  0  0  0  0
    8.3523   16.0216   21.8132 H    0  0  0  0  0  0  0  0  0  0  0  0
    8.2512   14.3926   21.2105 H    0  0  0  0  0  0  0  0  0  0  0  0
   10.6947   14.1343   21.2805 H    0  0  0  0  0  0  0  0  0  0  0  0
   10.6535   14.9565   17.8816 H    0  0  0  0  0  0  0  0  0  0  0  0
   10.9350   13.7794   19.1526 H    0  0  0  0  0  0  0  0  0  0  0  0
    9.1486   13.2746   25.7031 H    0  0  0  0  0  0  0  0  0  0  0  0
    6.4693   13.3464   26.7543 H    0  0  0  0  0  0  0  0  0  0  0  0
    6.1506    9.1925   26.4376 H    0  0  0  0  0  0  0  0  0  0  0  0
    8.0283    8.7223   24.6048 H    0  0  0  0  0  0  0  0  0  0  0  0
   10.2499    9.5820   23.9298 H    0  0  0  0  0  0  0  0  0  0  0  0
    9.0414   10.3809   22.9534 H    0  0  0  0  0  0  0  0  0  0  0  0
   10.5524   12.1271   23.7606 H    0  0  0  0  0  0  0  0  0  0  0  0
   10.5310   11.4734   25.3849 H    0  0  0  0  0  0  0  0  0  0  0  0
  2  1  2  0  0  0  0
  3  2  1  0  0  0  0
  4  3  1  0  0  0  0
 21  4  1  0  0  0  0
 22  4  1  0  0  0  0
  5  4  1  0  0  0  0
 23  5  1  0  0  0  0
 24  5  1  0  0  0  0
  6  5  1  0  0  0  0
 25  6  1  0  0  0  0
 26  6  1  0  0  0  0
  7  3  1  0  0  0  0
 27  7  1  0  0  0  0
 28  7  1  0  0  0  0
  8  6  1  0  0  0  0
  9  8  1  0  0  0  0
 29  8  1  0  0  0  0
 10  9  2  0  0  0  0
 11  9  1  0  0  0  0
 30 11  1  0  0  0  0
 31 11  1  0  0  0  0
 12  2  1  0  0  0  0
 20 12  1  0  0  0  0
 32 12  1  0  0  0  0
 13 12  1  0  0  0  0
 14 13  1  0  0  0  0
 33 14  1  0  0  0  0
 15 14  2  0  0  0  0
 16 15  1  0  0  0  0
 34 16  1  0  0  0  0
 17 16  1  0  0  0  0
 18 17  1  0  0  0  0
 35 18  1  0  0  0  0
 19 18  1  0  0  0  0
 36 19  1  0  0  0  0
 37 19  1  0  0  0  0
 38 20  1  0  0  0  0
 39 20  1  0  0  0  0
  8  7  1  0  0  0  0
 17 13  2  0  0  0  0
 20 19  1  0  0  0  0
M  END
>  <FittedScore>
-36.75

$$$$
