A71EV2A-x3218a_best-RMSD
  FITTED

 39 41     0  0  0  0  0  0  0999 V2000
    7.3862   12.9094   22.9507 O    0  0  0  0  0  0  0  0  0  0  0  0
    8.2280   13.4227   23.6731 C    0  0  0  0  0  0  0  0  0  0  0  0
    8.8741   14.5861   23.2878 N    0  0  0  0  0  0  0  0  0  0  0  0
    9.8608   15.3965   24.0927 C    0  0  0  0  0  0  0  0  0  0  0  0
   11.2859   15.4417   23.4732 C    0  0  0  0  0  0  0  0  0  0  0  0
   11.2491   15.9069   21.9932 C    0  0  0  0  0  0  0  0  0  0  0  0
    8.7905   15.1512   21.8970 C    0  0  0  0  0  0  0  0  0  0  0  0
   10.1843   15.1027   21.1909 C    0  0  0  0  0  0  0  0  0  0  0  0
   10.1484   15.5539   19.7357 C    0  0  0  0  0  0  0  0  0  0  0  0
    9.6518   16.5994   19.3624 O    0  0  0  0  0  0  0  0  0  0  0  0
   10.6727   14.6813   18.8495 N    0  0  0  0  0  0  0  0  0  0  0  0
    8.7217   12.6329   24.9045 C    0  0  0  0  0  0  0  0  0  0  0  0
    7.6111   11.8468   25.5842 C    0  0  0  0  0  0  0  0  0  0  0  0
    6.6134   12.2946   26.4234 C    0  0  0  0  0  0  0  0  0  0  0  0
    5.8011   11.1644   26.9359 N    0  0  0  0  0  0  0  0  0  0  0  0
    6.4665   10.1384   26.3263 N    0  0  0  0  0  0  0  0  0  0  0  0
    7.5119   10.4820   25.5318 C    0  0  0  0  0  0  0  0  0  0  0  0
    8.3760    9.6799   24.8187 N    0  0  0  0  0  0  0  0  0  0  0  0
    9.4399   10.2909   23.9844 C    0  0  0  0  0  0  0  0  0  0  0  0
    9.9086   11.6901   24.5190 C    0  0  0  0  0  0  0  0  0  0  0  0
    9.4790   16.4185   24.1731 H    0  0  0  0  0  0  0  0  0  0  0  0
    9.9639   15.0819   25.1244 H    0  0  0  0  0  0  0  0  0  0  0  0
   11.9149   16.1222   24.0520 H    0  0  0  0  0  0  0  0  0  0  0  0
   11.7533   14.4546   23.5323 H    0  0  0  0  0  0  0  0  0  0  0  0
   11.0371   16.9814   21.9498 H    0  0  0  0  0  0  0  0  0  0  0  0
   12.2381   15.7627   21.5446 H    0  0  0  0  0  0  0  0  0  0  0  0
    8.4203   16.1819   21.9448 H    0  0  0  0  0  0  0  0  0  0  0  0
    8.0663   14.6275   21.2686 H    0  0  0  0  0  0  0  0  0  0  0  0
   10.4945   14.0530   21.2235 H    0  0  0  0  0  0  0  0  0  0  0  0
   10.9221   13.7371   19.1507 H    0  0  0  0  0  0  0  0  0  0  0  0
   10.6910   14.9012   17.8607 H    0  0  0  0  0  0  0  0  0  0  0  0
    9.0589   13.2847   25.7054 H    0  0  0  0  0  0  0  0  0  0  0  0
    6.4280   13.3257   26.7137 H    0  0  0  0  0  0  0  0  0  0  0  0
    6.2168    9.1667   26.4660 H    0  0  0  0  0  0  0  0  0  0  0  0
    8.1356    8.6989   24.6638 H    0  0  0  0  0  0  0  0  0  0  0  0
   10.3061    9.6279   23.9373 H    0  0  0  0  0  0  0  0  0  0  0  0
    9.0894   10.4036   22.9548 H    0  0  0  0  0  0  0  0  0  0  0  0
   10.5146   11.5220   25.4153 H    0  0  0  0  0  0  0  0  0  0  0  0
   10.5723   12.1668   23.7916 H    0  0  0  0  0  0  0  0  0  0  0  0
  2  1  2  0  0  0  0
  3  2  1  0  0  0  0
  4  3  1  0  0  0  0
 21  4  1  0  0  0  0
 22  4  1  0  0  0  0
  5  4  1  0  0  0  0
 23  5  1  0  0  0  0
 24  5  1  0  0  0  0
  6  5  1  0  0  0  0
 25  6  1  0  0  0  0
 26  6  1  0  0  0  0
  7  3  1  0  0  0  0
 27  7  1  0  0  0  0
 28  7  1  0  0  0  0
  8  6  1  0  0  0  0
  9  8  1  0  0  0  0
 29  8  1  0  0  0  0
 10  9  2  0  0  0  0
 11  9  1  0  0  0  0
 30 11  1  0  0  0  0
 31 11  1  0  0  0  0
 12  2  1  0  0  0  0
 20 12  1  0  0  0  0
 32 12  1  0  0  0  0
 13 12  1  0  0  0  0
 14 13  1  0  0  0  0
 33 14  1  0  0  0  0
 15 14  2  0  0  0  0
 16 15  1  0  0  0  0
 34 16  1  0  0  0  0
 17 16  1  0  0  0  0
 18 17  1  0  0  0  0
 35 18  1  0  0  0  0
 19 18  1  0  0  0  0
 36 19  1  0  0  0  0
 37 19  1  0  0  0  0
 38 20  1  0  0  0  0
 39 20  1  0  0  0  0
  8  7  1  0  0  0  0
 17 13  2  0  0  0  0
 20 19  1  0  0  0  0
M  END
>  <FittedScore>
-36.15

$$$$
