A71EV2A-x4827a_lowest-energy
  FITTED

 39 40     0  0  0  0  0  0  0999 V2000
    9.7524   16.7650   19.2134 O    0  0  0  0  0  0  0  0  0  0  0  0
   10.3047   15.7526   19.6004 C    0  0  0  0  0  0  0  0  0  0  0  0
   10.8298   14.8781   18.7175 N    0  0  0  0  0  0  0  0  0  0  0  0
   10.2752   15.2970   21.0563 C    0  0  0  0  0  0  0  0  0  0  0  0
   11.0669   16.2855   21.9666 C    0  0  0  0  0  0  0  0  0  0  0  0
   10.9487   15.8786   23.4577 C    0  0  0  0  0  0  0  0  0  0  0  0
    9.4640   15.7017   23.8649 C    0  0  0  0  0  0  0  0  0  0  0  0
    8.8075   15.0996   21.5596 C    0  0  0  0  0  0  0  0  0  0  0  0
    8.7214   14.7094   23.0045 N    0  0  0  0  0  0  0  0  0  0  0  0
    7.9473   13.6604   23.4574 C    0  0  0  0  0  0  0  0  0  0  0  0
    7.1809   13.0756   22.7127 O    0  0  0  0  0  0  0  0  0  0  0  0
    8.0829   13.2246   24.9290 C    0  0  0  0  0  0  0  0  0  0  0  0
    7.3582   11.9223   25.2968 C    0  0  0  0  0  0  0  0  0  0  0  0
    7.7628   10.6525   24.8124 C    0  0  0  0  0  0  0  0  0  0  0  0
    9.2276   10.4990   23.7952 S    0  0  0  0  0  0  0  0  0  0  0  0
    9.4226    8.7522   23.3622 C    0  0  0  0  0  0  0  0  0  0  0  0
    6.2451   11.9882   26.1582 C    0  0  0  0  0  0  0  0  0  0  0  0
    5.5455   10.8881   26.5334 N    0  0  0  0  0  0  0  0  0  0  0  0
    5.9071    9.6821   26.0407 C    0  0  0  0  0  0  0  0  0  0  0  0
    6.9914    9.5286   25.1740 C    0  0  0  0  0  0  0  0  0  0  0  0
   10.8213   15.0991   17.7278 H    0  0  0  0  0  0  0  0  0  0  0  0
   11.0792   13.9377   19.0169 H    0  0  0  0  0  0  0  0  0  0  0  0
   10.7701   14.3210   21.1405 H    0  0  0  0  0  0  0  0  0  0  0  0
   12.1194   16.3040   21.6749 H    0  0  0  0  0  0  0  0  0  0  0  0
   10.6842   17.3061   21.8435 H    0  0  0  0  0  0  0  0  0  0  0  0
   11.4958   14.9484   23.6418 H    0  0  0  0  0  0  0  0  0  0  0  0
   11.4062   16.6478   24.0847 H    0  0  0  0  0  0  0  0  0  0  0  0
    9.4518   15.4683   24.9266 H    0  0  0  0  0  0  0  0  0  0  0  0
    8.9565   16.6698   23.7916 H    0  0  0  0  0  0  0  0  0  0  0  0
    8.3395   14.3558   20.9069 H    0  0  0  0  0  0  0  0  0  0  0  0
    8.2313   16.0204   21.4112 H    0  0  0  0  0  0  0  0  0  0  0  0
    9.1393   13.1058   25.1822 H    0  0  0  0  0  0  0  0  0  0  0  0
    7.7124   14.0331   25.5662 H    0  0  0  0  0  0  0  0  0  0  0  0
   10.3231    8.6221   22.7656 H    0  0  0  0  0  0  0  0  0  0  0  0
    8.5668    8.4108   22.7699 H    0  0  0  0  0  0  0  0  0  0  0  0
    9.5226    8.1720   24.2771 H    0  0  0  0  0  0  0  0  0  0  0  0
    5.9225   12.9504   26.5485 H    0  0  0  0  0  0  0  0  0  0  0  0
    5.3384    8.8006   26.3317 H    0  0  0  0  0  0  0  0  0  0  0  0
    7.2129    8.5313   24.8176 H    0  0  0  0  0  0  0  0  0  0  0  0
  9 10  1  0  0  0  0
  7  9  1  0  0  0  0
  6  7  1  0  0  0  0
  5  6  1  0  0  0  0
  4  5  1  0  0  0  0
  2  4  1  0  0  0  0
  1  2  2  0  0  0  0
  3  2  1  0  0  0  0
 21  3  1  0  0  0  0
 22  3  1  0  0  0  0
 23  4  1  0  0  0  0
 24  5  1  0  0  0  0
 25  5  1  0  0  0  0
 26  6  1  0  0  0  0
 27  6  1  0  0  0  0
 28  7  1  0  0  0  0
 29  7  1  0  0  0  0
  8  4  1  0  0  0  0
 30  8  1  0  0  0  0
 31  8  1  0  0  0  0
 11 10  2  0  0  0  0
 12 10  1  0  0  0  0
 32 12  1  0  0  0  0
 33 12  1  0  0  0  0
 13 12  1  0  0  0  0
 14 13  1  0  0  0  0
 20 14  2  0  0  0  0
 15 14  1  0  0  0  0
 16 15  1  0  0  0  0
 34 16  1  0  0  0  0
 35 16  1  0  0  0  0
 36 16  1  0  0  0  0
 17 13  2  0  0  0  0
 37 17  1  0  0  0  0
 18 17  1  0  0  0  0
 19 18  2  0  0  0  0
 38 19  1  0  0  0  0
 39 20  1  0  0  0  0
  9  8  1  0  0  0  0
 20 19  1  0  0  0  0
M  END
>  <FittedScore>
-35.34

$$$$
