A71EV2A-x4827a_best-RMSD
  FITTED

 39 40     0  0  0  0  0  0  0999 V2000
    9.8919   16.8464   19.2743 O    0  0  0  0  0  0  0  0  0  0  0  0
   10.3216   15.7618   19.6140 C    0  0  0  0  0  0  0  0  0  0  0  0
   10.7679   14.8741   18.7044 N    0  0  0  0  0  0  0  0  0  0  0  0
   10.2935   15.2481   21.0478 C    0  0  0  0  0  0  0  0  0  0  0  0
   11.2932   16.0387   21.9428 C    0  0  0  0  0  0  0  0  0  0  0  0
   11.2113   15.5399   23.4088 C    0  0  0  0  0  0  0  0  0  0  0  0
    9.7451   15.5407   23.9174 C    0  0  0  0  0  0  0  0  0  0  0  0
    8.8494   15.2156   21.6414 C    0  0  0  0  0  0  0  0  0  0  0  0
    8.8256   14.7094   23.0548 N    0  0  0  0  0  0  0  0  0  0  0  0
    8.0168   13.6711   23.4732 C    0  0  0  0  0  0  0  0  0  0  0  0
    7.2258   13.1312   22.7132 O    0  0  0  0  0  0  0  0  0  0  0  0
    8.1415   13.1786   24.9245 C    0  0  0  0  0  0  0  0  0  0  0  0
    7.3685   11.8943   25.2448 C    0  0  0  0  0  0  0  0  0  0  0  0
    7.7879   10.6133   24.7977 C    0  0  0  0  0  0  0  0  0  0  0  0
    9.2453   10.4305   23.7712 S    0  0  0  0  0  0  0  0  0  0  0  0
    9.4538    8.6704   23.3807 C    0  0  0  0  0  0  0  0  0  0  0  0
    6.2135   11.9869   26.0481 C    0  0  0  0  0  0  0  0  0  0  0  0
    5.5007   10.8987   26.4351 N    0  0  0  0  0  0  0  0  0  0  0  0
    5.8998    9.6793   26.0095 C    0  0  0  0  0  0  0  0  0  0  0  0
    7.0150    9.5014   25.1823 C    0  0  0  0  0  0  0  0  0  0  0  0
   10.7763   15.1267   17.7297 H    0  0  0  0  0  0  0  0  0  0  0  0
   10.9441   13.9052   18.9689 H    0  0  0  0  0  0  0  0  0  0  0  0
   10.6357   14.2037   21.0533 H    0  0  0  0  0  0  0  0  0  0  0  0
   12.3113   15.8936   21.5718 H    0  0  0  0  0  0  0  0  0  0  0  0
   11.0884   17.1132   21.9034 H    0  0  0  0  0  0  0  0  0  0  0  0
   11.6232   14.5265   23.4785 H    0  0  0  0  0  0  0  0  0  0  0  0
   11.8277   16.1736   24.0518 H    0  0  0  0  0  0  0  0  0  0  0  0
    9.7662   15.2376   24.9631 H    0  0  0  0  0  0  0  0  0  0  0  0
    9.3756   16.5697   23.9393 H    0  0  0  0  0  0  0  0  0  0  0  0
    8.2340   14.6122   20.9705 H    0  0  0  0  0  0  0  0  0  0  0  0
    8.4080   16.2156   21.6182 H    0  0  0  0  0  0  0  0  0  0  0  0
    9.1905   12.9986   25.1778 H    0  0  0  0  0  0  0  0  0  0  0  0
    7.8125   13.9826   25.5902 H    0  0  0  0  0  0  0  0  0  0  0  0
   10.3131    8.5562   22.7175 H    0  0  0  0  0  0  0  0  0  0  0  0
    8.5738    8.2802   22.8652 H    0  0  0  0  0  0  0  0  0  0  0  0
    9.6383    8.1035   24.2962 H    0  0  0  0  0  0  0  0  0  0  0  0
    5.8755   12.9625   26.3934 H    0  0  0  0  0  0  0  0  0  0  0  0
    5.3321    8.8033   26.3152 H    0  0  0  0  0  0  0  0  0  0  0  0
    7.2513    8.4891   24.8674 H    0  0  0  0  0  0  0  0  0  0  0  0
  9 10  1  0  0  0  0
  7  9  1  0  0  0  0
  6  7  1  0  0  0  0
  5  6  1  0  0  0  0
  4  5  1  0  0  0  0
  2  4  1  0  0  0  0
  1  2  2  0  0  0  0
  3  2  1  0  0  0  0
 21  3  1  0  0  0  0
 22  3  1  0  0  0  0
 23  4  1  0  0  0  0
 24  5  1  0  0  0  0
 25  5  1  0  0  0  0
 26  6  1  0  0  0  0
 27  6  1  0  0  0  0
 28  7  1  0  0  0  0
 29  7  1  0  0  0  0
  8  4  1  0  0  0  0
 30  8  1  0  0  0  0
 31  8  1  0  0  0  0
 11 10  2  0  0  0  0
 12 10  1  0  0  0  0
 32 12  1  0  0  0  0
 33 12  1  0  0  0  0
 13 12  1  0  0  0  0
 14 13  1  0  0  0  0
 20 14  2  0  0  0  0
 15 14  1  0  0  0  0
 16 15  1  0  0  0  0
 34 16  1  0  0  0  0
 35 16  1  0  0  0  0
 36 16  1  0  0  0  0
 17 13  2  0  0  0  0
 37 17  1  0  0  0  0
 18 17  1  0  0  0  0
 19 18  2  0  0  0  0
 38 19  1  0  0  0  0
 39 20  1  0  0  0  0
  9  8  1  0  0  0  0
 20 19  1  0  0  0  0
M  END
>  <FittedScore>
-35.06

$$$$
