A71EV2A-x7338a_best-RMSD
  FITTED

 52 53     0  0  0  0  0  0  0999 V2000
    9.4258    8.7051   23.4509 C    0  0  0  0  0  0  0  0  0  0  0  0
    9.3794   10.4469   23.9708 S    0  0  0  0  0  0  0  0  0  0  0  0
    7.9613   10.6363   25.0564 C    0  0  0  0  0  0  0  0  0  0  0  0
    7.2571    9.5165   25.3895 N    0  0  0  0  0  0  0  0  0  0  0  0
    6.2126    9.6369   26.2477 C    0  0  0  0  0  0  0  0  0  0  0  0
    5.7721   10.8121   26.7635 N    0  0  0  0  0  0  0  0  0  0  0  0
    6.4104   11.9589   26.3891 C    0  0  0  0  0  0  0  0  0  0  0  0
    5.8427   13.1340   26.8583 N    0  0  0  0  0  0  0  0  0  0  0  0
    6.4393   13.8286   28.0206 C    0  0  0  0  0  0  0  0  0  0  0  0
    4.8073   13.8487   26.0613 C    0  0  0  0  0  0  0  0  0  0  0  0
    3.3860   13.2034   26.1514 C    0  0  0  0  0  0  0  0  0  0  0  0
    2.5192   13.5252   27.4051 C    0  0  0  0  0  0  0  0  0  0  0  0
    3.1233   13.1984   28.5624 F    0  0  0  0  0  0  0  0  0  0  0  0
    2.1733   14.8306   27.4693 F    0  0  0  0  0  0  0  0  0  0  0  0
    1.3798   12.8138   27.3468 F    0  0  0  0  0  0  0  0  0  0  0  0
    7.5712   11.9143   25.5569 C    0  0  0  0  0  0  0  0  0  0  0  0
    8.3736   13.1835   25.1762 C    0  0  0  0  0  0  0  0  0  0  0  0
    8.1208   13.7120   23.7544 C    0  0  0  0  0  0  0  0  0  0  0  0
    7.3088   13.1358   23.0427 O    0  0  0  0  0  0  0  0  0  0  0  0
    8.8831   14.7698   23.2927 N    0  0  0  0  0  0  0  0  0  0  0  0
    9.9028   15.5583   24.0708 C    0  0  0  0  0  0  0  0  0  0  0  0
   11.3373   15.3506   23.5202 C    0  0  0  0  0  0  0  0  0  0  0  0
   11.4191   15.7236   22.0130 C    0  0  0  0  0  0  0  0  0  0  0  0
   10.2861   15.0425   21.1824 C    0  0  0  0  0  0  0  0  0  0  0  0
   10.2979   15.5478   19.7358 C    0  0  0  0  0  0  0  0  0  0  0  0
   10.7824   14.6980   18.8077 N    0  0  0  0  0  0  0  0  0  0  0  0
    9.8500   16.6244   19.3961 O    0  0  0  0  0  0  0  0  0  0  0  0
    8.8856   15.2207   21.8616 C    0  0  0  0  0  0  0  0  0  0  0  0
    8.5160    8.4512   22.9032 H    0  0  0  0  0  0  0  0  0  0  0  0
    9.5157    8.0613   24.3260 H    0  0  0  0  0  0  0  0  0  0  0  0
   10.2881    8.5427   22.8034 H    0  0  0  0  0  0  0  0  0  0  0  0
    5.7019    8.7246   26.5440 H    0  0  0  0  0  0  0  0  0  0  0  0
    5.7591   13.8434   28.8727 H    0  0  0  0  0  0  0  0  0  0  0  0
    6.6984   14.8643   27.7851 H    0  0  0  0  0  0  0  0  0  0  0  0
    7.3660   13.3536   28.3558 H    0  0  0  0  0  0  0  0  0  0  0  0
    5.1003   13.8496   25.0062 H    0  0  0  0  0  0  0  0  0  0  0  0
    4.7305   14.9061   26.3294 H    0  0  0  0  0  0  0  0  0  0  0  0
    3.4618   12.1184   26.0486 H    0  0  0  0  0  0  0  0  0  0  0  0
    2.8236   13.5243   25.2714 H    0  0  0  0  0  0  0  0  0  0  0  0
    9.4390   12.9732   25.2950 H    0  0  0  0  0  0  0  0  0  0  0  0
    8.1934   13.9917   25.8819 H    0  0  0  0  0  0  0  0  0  0  0  0
    9.9068   15.3386   25.1368 H    0  0  0  0  0  0  0  0  0  0  0  0
    9.6492   16.6230   24.0233 H    0  0  0  0  0  0  0  0  0  0  0  0
   11.6401   14.3091   23.6659 H    0  0  0  0  0  0  0  0  0  0  0  0
   12.0391   15.9662   24.0877 H    0  0  0  0  0  0  0  0  0  0  0  0
   12.3944   15.4202   21.6230 H    0  0  0  0  0  0  0  0  0  0  0  0
   11.3591   16.8117   21.9121 H    0  0  0  0  0  0  0  0  0  0  0  0
   10.4955   13.9645   21.1866 H    0  0  0  0  0  0  0  0  0  0  0  0
   11.0129   13.7416   19.0639 H    0  0  0  0  0  0  0  0  0  0  0  0
   10.7066   14.9307   17.8237 H    0  0  0  0  0  0  0  0  0  0  0  0
    8.1385   14.6961   21.2575 H    0  0  0  0  0  0  0  0  0  0  0  0
    8.5848   16.2744   21.8284 H    0  0  0  0  0  0  0  0  0  0  0  0
 16 17  1  0  0  0  0
  7 16  2  0  0  0  0
  6  7  1  0  0  0  0
  5  6  2  0  0  0  0
  4  5  1  0  0  0  0
  3  4  2  0  0  0  0
  2  3  1  0  0  0  0
  1  2  1  0  0  0  0
 29  1  1  0  0  0  0
 30  1  1  0  0  0  0
 31  1  1  0  0  0  0
 32  5  1  0  0  0  0
  8  7  1  0  0  0  0
  9  8  1  0  0  0  0
 10  8  1  0  0  0  0
 33  9  1  0  0  0  0
 34  9  1  0  0  0  0
 35  9  1  0  0  0  0
 11 10  1  0  0  0  0
 36 10  1  0  0  0  0
 37 10  1  0  0  0  0
 12 11  1  0  0  0  0
 38 11  1  0  0  0  0
 39 11  1  0  0  0  0
 13 12  1  0  0  0  0
 14 12  1  0  0  0  0
 15 12  1  0  0  0  0
 18 17  1  0  0  0  0
 40 17  1  0  0  0  0
 41 17  1  0  0  0  0
 19 18  2  0  0  0  0
 20 18  1  0  0  0  0
 21 20  1  0  0  0  0
 22 21  1  0  0  0  0
 42 21  1  0  0  0  0
 43 21  1  0  0  0  0
 23 22  1  0  0  0  0
 44 22  1  0  0  0  0
 45 22  1  0  0  0  0
 24 23  1  0  0  0  0
 46 23  1  0  0  0  0
 47 23  1  0  0  0  0
 25 24  1  0  0  0  0
 28 24  1  0  0  0  0
 48 24  1  0  0  0  0
 26 25  1  0  0  0  0
 27 25  2  0  0  0  0
 49 26  1  0  0  0  0
 50 26  1  0  0  0  0
 51 28  1  0  0  0  0
 52 28  1  0  0  0  0
 16  3  1  0  0  0  0
 28 20  1  0  0  0  0
M  END
>  <FittedScore>
-32.06

$$$$
