A71EV2A-x7338a_lowest-energy
  FITTED

 52 53     0  0  0  0  0  0  0999 V2000
    9.6850    8.6790   23.4066 C    0  0  0  0  0  0  0  0  0  0  0  0
    9.4555   10.4378   23.8209 S    0  0  0  0  0  0  0  0  0  0  0  0
    8.0516   10.5205   24.9302 C    0  0  0  0  0  0  0  0  0  0  0  0
    7.4093    9.3583   25.2158 N    0  0  0  0  0  0  0  0  0  0  0  0
    6.3554    9.3896   26.0700 C    0  0  0  0  0  0  0  0  0  0  0  0
    5.8581   10.5124   26.6375 N    0  0  0  0  0  0  0  0  0  0  0  0
    6.4501   11.7021   26.3270 C    0  0  0  0  0  0  0  0  0  0  0  0
    5.8440   12.8226   26.8615 N    0  0  0  0  0  0  0  0  0  0  0  0
    6.3222   13.4089   28.1297 C    0  0  0  0  0  0  0  0  0  0  0  0
    4.6828   13.4509   26.1888 C    0  0  0  0  0  0  0  0  0  0  0  0
    3.3440   12.8779   26.7485 C    0  0  0  0  0  0  0  0  0  0  0  0
    2.0586   13.4387   26.0863 C    0  0  0  0  0  0  0  0  0  0  0  0
    2.0836   13.3656   24.7450 F    0  0  0  0  0  0  0  0  0  0  0  0
    1.0040   12.6990   26.4574 F    0  0  0  0  0  0  0  0  0  0  0  0
    1.8226   14.7243   26.4276 F    0  0  0  0  0  0  0  0  0  0  0  0
    7.6028   11.7548   25.4876 C    0  0  0  0  0  0  0  0  0  0  0  0
    8.3285   13.0775   25.1568 C    0  0  0  0  0  0  0  0  0  0  0  0
    8.0573   13.6236   23.7488 C    0  0  0  0  0  0  0  0  0  0  0  0
    7.2086   13.0787   23.0607 O    0  0  0  0  0  0  0  0  0  0  0  0
    8.8215   14.6676   23.2643 N    0  0  0  0  0  0  0  0  0  0  0  0
    9.8430   15.4543   24.0396 C    0  0  0  0  0  0  0  0  0  0  0  0
   11.2755   15.2892   23.4643 C    0  0  0  0  0  0  0  0  0  0  0  0
   11.3328   15.6984   21.9708 C    0  0  0  0  0  0  0  0  0  0  0  0
   10.1912   15.0311   21.1498 C    0  0  0  0  0  0  0  0  0  0  0  0
   10.1937   15.5666   19.7253 C    0  0  0  0  0  0  0  0  0  0  0  0
   10.7845   14.7699   18.8184 N    0  0  0  0  0  0  0  0  0  0  0  0
    9.6585   16.6053   19.3835 O    0  0  0  0  0  0  0  0  0  0  0  0
    8.7925   15.1436   21.8411 C    0  0  0  0  0  0  0  0  0  0  0  0
   10.5490    8.5878   22.7460 H    0  0  0  0  0  0  0  0  0  0  0  0
    8.8033    8.2924   22.8899 H    0  0  0  0  0  0  0  0  0  0  0  0
    9.8773    8.0972   24.3103 H    0  0  0  0  0  0  0  0  0  0  0  0
    5.8767    8.4416   26.3020 H    0  0  0  0  0  0  0  0  0  0  0  0
    6.5667   14.4661   28.0122 H    0  0  0  0  0  0  0  0  0  0  0  0
    7.2344   12.9226   28.4861 H    0  0  0  0  0  0  0  0  0  0  0  0
    5.5790   13.3256   28.9274 H    0  0  0  0  0  0  0  0  0  0  0  0
    4.7285   13.2616   25.1095 H    0  0  0  0  0  0  0  0  0  0  0  0
    4.6937   14.5388   26.2954 H    0  0  0  0  0  0  0  0  0  0  0  0
    3.2816   13.0726   27.8246 H    0  0  0  0  0  0  0  0  0  0  0  0
    3.3377   11.7891   26.6246 H    0  0  0  0  0  0  0  0  0  0  0  0
    9.3998   12.9115   25.2888 H    0  0  0  0  0  0  0  0  0  0  0  0
    8.0796   13.8555   25.8779 H    0  0  0  0  0  0  0  0  0  0  0  0
    9.8786   15.2078   25.0997 H    0  0  0  0  0  0  0  0  0  0  0  0
    9.5683   16.5137   24.0223 H    0  0  0  0  0  0  0  0  0  0  0  0
   11.5941   14.2486   23.5724 H    0  0  0  0  0  0  0  0  0  0  0  0
   11.9763   15.8991   24.0374 H    0  0  0  0  0  0  0  0  0  0  0  0
   12.2972   15.3967   21.5549 H    0  0  0  0  0  0  0  0  0  0  0  0
   11.2888   16.7876   21.8875 H    0  0  0  0  0  0  0  0  0  0  0  0
   10.4147   13.9562   21.1064 H    0  0  0  0  0  0  0  0  0  0  0  0
   10.7814   15.0453   17.8449 H    0  0  0  0  0  0  0  0  0  0  0  0
   11.0710   13.8239   19.0881 H    0  0  0  0  0  0  0  0  0  0  0  0
    8.0873   14.5871   21.2195 H    0  0  0  0  0  0  0  0  0  0  0  0
    8.4375   16.1799   21.8214 H    0  0  0  0  0  0  0  0  0  0  0  0
 16 17  1  0  0  0  0
  7 16  2  0  0  0  0
  6  7  1  0  0  0  0
  5  6  2  0  0  0  0
  4  5  1  0  0  0  0
  3  4  2  0  0  0  0
  2  3  1  0  0  0  0
  1  2  1  0  0  0  0
 29  1  1  0  0  0  0
 30  1  1  0  0  0  0
 31  1  1  0  0  0  0
 32  5  1  0  0  0  0
  8  7  1  0  0  0  0
  9  8  1  0  0  0  0
 10  8  1  0  0  0  0
 33  9  1  0  0  0  0
 34  9  1  0  0  0  0
 35  9  1  0  0  0  0
 11 10  1  0  0  0  0
 36 10  1  0  0  0  0
 37 10  1  0  0  0  0
 12 11  1  0  0  0  0
 38 11  1  0  0  0  0
 39 11  1  0  0  0  0
 13 12  1  0  0  0  0
 14 12  1  0  0  0  0
 15 12  1  0  0  0  0
 18 17  1  0  0  0  0
 40 17  1  0  0  0  0
 41 17  1  0  0  0  0
 19 18  2  0  0  0  0
 20 18  1  0  0  0  0
 21 20  1  0  0  0  0
 22 21  1  0  0  0  0
 42 21  1  0  0  0  0
 43 21  1  0  0  0  0
 23 22  1  0  0  0  0
 44 22  1  0  0  0  0
 45 22  1  0  0  0  0
 24 23  1  0  0  0  0
 46 23  1  0  0  0  0
 47 23  1  0  0  0  0
 25 24  1  0  0  0  0
 28 24  1  0  0  0  0
 48 24  1  0  0  0  0
 26 25  1  0  0  0  0
 27 25  2  0  0  0  0
 49 26  1  0  0  0  0
 50 26  1  0  0  0  0
 51 28  1  0  0  0  0
 52 28  1  0  0  0  0
 16  3  1  0  0  0  0
 28 20  1  0  0  0  0
M  END
>  <FittedScore>
-34.11

$$$$
