A71EV2A-x3914a_lowest-energy
  FITTED

 42 44     0  0  0  0  0  0  0999 V2000
    9.9763   16.7243   19.1821 O    0  0  0  0  0  0  0  0  0  0  0  0
   10.4225   15.6735   19.5965 C    0  0  0  0  0  0  0  0  0  0  0  0
   10.8659   14.7399   18.7311 N    0  0  0  0  0  0  0  0  0  0  0  0
   10.3264   15.2657   21.0673 C    0  0  0  0  0  0  0  0  0  0  0  0
   11.1972   16.2100   21.9574 C    0  0  0  0  0  0  0  0  0  0  0  0
   10.9074   16.0183   23.4684 C    0  0  0  0  0  0  0  0  0  0  0  0
    9.3824   16.0590   23.7480 C    0  0  0  0  0  0  0  0  0  0  0  0
    8.8250   15.2020   21.5189 C    0  0  0  0  0  0  0  0  0  0  0  0
    8.6242   15.0039   22.9900 N    0  0  0  0  0  0  0  0  0  0  0  0
    7.8117   14.0255   23.5339 C    0  0  0  0  0  0  0  0  0  0  0  0
    7.1572   13.2776   22.8198 O    0  0  0  0  0  0  0  0  0  0  0  0
    7.7883   13.8554   25.0695 C    0  0  0  0  0  0  0  0  0  0  0  0
    7.2001   12.5418   25.5684 C    0  0  0  0  0  0  0  0  0  0  0  0
    6.1364   12.4362   26.3942 C    0  0  0  0  0  0  0  0  0  0  0  0
    5.6313   11.2631   26.8379 C    0  0  0  0  0  0  0  0  0  0  0  0
    6.1306   10.0624   26.5012 C    0  0  0  0  0  0  0  0  0  0  0  0
    7.3052   10.0527   25.5831 C    0  0  0  0  0  0  0  0  0  0  0  0
    7.8292   11.2478   25.1577 C    0  0  0  0  0  0  0  0  0  0  0  0
    8.8935   10.9551   24.3420 C    0  0  0  0  0  0  0  0  0  0  0  0
    8.0362    8.9109   25.0234 N    0  0  0  0  0  0  0  0  0  0  0  0
    8.9631    9.5959   24.2897 N    0  0  0  0  0  0  0  0  0  0  0  0
    9.9242    8.8311   23.5015 C    0  0  0  0  0  0  0  0  0  0  0  0
   10.8132   14.9179   17.7363 H    0  0  0  0  0  0  0  0  0  0  0  0
   11.0656   13.7958   19.0604 H    0  0  0  0  0  0  0  0  0  0  0  0
   10.7355   14.2566   21.1958 H    0  0  0  0  0  0  0  0  0  0  0  0
   12.2572   16.0212   21.7645 H    0  0  0  0  0  0  0  0  0  0  0  0
   11.0174   17.2579   21.6970 H    0  0  0  0  0  0  0  0  0  0  0  0
   11.3238   15.0660   23.8092 H    0  0  0  0  0  0  0  0  0  0  0  0
   11.4040   16.8072   24.0387 H    0  0  0  0  0  0  0  0  0  0  0  0
    9.2333   16.0301   24.8258 H    0  0  0  0  0  0  0  0  0  0  0  0
    8.9914   17.0410   23.4634 H    0  0  0  0  0  0  0  0  0  0  0  0
    8.3505   14.4150   20.9272 H    0  0  0  0  0  0  0  0  0  0  0  0
    8.3024   16.1219   21.2353 H    0  0  0  0  0  0  0  0  0  0  0  0
    8.8104   13.8821   25.4591 H    0  0  0  0  0  0  0  0  0  0  0  0
    7.2564   14.7029   25.5106 H    0  0  0  0  0  0  0  0  0  0  0  0
    5.6488   13.3481   26.7314 H    0  0  0  0  0  0  0  0  0  0  0  0
    4.7726   11.2892   27.5064 H    0  0  0  0  0  0  0  0  0  0  0  0
    5.6751    9.1547   26.8917 H    0  0  0  0  0  0  0  0  0  0  0  0
    9.5540   11.6523   23.8308 H    0  0  0  0  0  0  0  0  0  0  0  0
    9.4890    8.5212   22.5466 H    0  0  0  0  0  0  0  0  0  0  0  0
   10.2563    7.9373   24.0292 H    0  0  0  0  0  0  0  0  0  0  0  0
   10.8245    9.4094   23.2849 H    0  0  0  0  0  0  0  0  0  0  0  0
  9 10  1  0  0  0  0
  7  9  1  0  0  0  0
  6  7  1  0  0  0  0
  5  6  1  0  0  0  0
  4  5  1  0  0  0  0
  2  4  1  0  0  0  0
  1  2  2  0  0  0  0
  3  2  1  0  0  0  0
 23  3  1  0  0  0  0
 24  3  1  0  0  0  0
 25  4  1  0  0  0  0
 26  5  1  0  0  0  0
 27  5  1  0  0  0  0
 28  6  1  0  0  0  0
 29  6  1  0  0  0  0
 30  7  1  0  0  0  0
 31  7  1  0  0  0  0
  8  4  1  0  0  0  0
 32  8  1  0  0  0  0
 33  8  1  0  0  0  0
 11 10  2  0  0  0  0
 12 10  1  0  0  0  0
 34 12  1  0  0  0  0
 35 12  1  0  0  0  0
 13 12  1  0  0  0  0
 14 13  2  0  0  0  0
 36 14  1  0  0  0  0
 15 14  1  0  0  0  0
 37 15  1  0  0  0  0
 16 15  2  0  0  0  0
 38 16  1  0  0  0  0
 17 16  1  0  0  0  0
 18 13  1  0  0  0  0
 19 18  2  0  0  0  0
 39 19  1  0  0  0  0
 20 17  2  0  0  0  0
 21 19  1  0  0  0  0
 22 21  1  0  0  0  0
 40 22  1  0  0  0  0
 41 22  1  0  0  0  0
 42 22  1  0  0  0  0
  9  8  1  0  0  0  0
 18 17  1  0  0  0  0
 21 20  1  0  0  0  0
M  END
>  <FittedScore>
-32.74

$$$$
