A71EV2A-x5482a_best-RMSD
  FITTED

 40 42     0  0  0  0  0  0  0999 V2000
    8.9880   10.0278   24.0416 C    0  0  0  0  0  0  0  0  0  0  0  0
    7.9518   10.6413   24.9861 C    0  0  0  0  0  0  0  0  0  0  0  0
    7.0466    9.8098   25.6740 C    0  0  0  0  0  0  0  0  0  0  0  0
    6.1448   10.3802   26.5786 C    0  0  0  0  0  0  0  0  0  0  0  0
    4.9905    9.4943   27.5677 S    0  0  0  0  0  0  0  0  0  0  0  0
    4.4411   11.0288   28.2501 C    0  0  0  0  0  0  0  0  0  0  0  0
    5.1346   12.1157   27.7391 C    0  0  0  0  0  0  0  0  0  0  0  0
    6.1065   11.7533   26.8065 C    0  0  0  0  0  0  0  0  0  0  0  0
    7.0009   12.6043   26.1358 C    0  0  0  0  0  0  0  0  0  0  0  0
    7.0511   14.3037   26.4936 CL   0  0  0  0  0  0  0  0  0  0  0  0
    7.9063   12.0418   25.2063 C    0  0  0  0  0  0  0  0  0  0  0  0
    8.7679   12.8829   24.5214 O    0  0  0  0  0  0  0  0  0  0  0  0
    8.4597   13.4494   23.3268 C    0  0  0  0  0  0  0  0  0  0  0  0
    7.5373   13.0453   22.6329 O    0  0  0  0  0  0  0  0  0  0  0  0
    9.2528   14.5144   22.9727 N    0  0  0  0  0  0  0  0  0  0  0  0
   10.1262   15.2911   23.9306 C    0  0  0  0  0  0  0  0  0  0  0  0
   11.5385   15.6442   23.3917 C    0  0  0  0  0  0  0  0  0  0  0  0
   11.5124   16.2255   21.9531 C    0  0  0  0  0  0  0  0  0  0  0  0
   10.6572   15.3151   21.0332 C    0  0  0  0  0  0  0  0  0  0  0  0
   10.6258   15.7911   19.5879 C    0  0  0  0  0  0  0  0  0  0  0  0
   10.9246   14.8419   18.6757 N    0  0  0  0  0  0  0  0  0  0  0  0
   10.0991   16.8286   19.2362 O    0  0  0  0  0  0  0  0  0  0  0  0
    9.2296   15.1202   21.6122 C    0  0  0  0  0  0  0  0  0  0  0  0
    9.9918   10.3750   24.2982 H    0  0  0  0  0  0  0  0  0  0  0  0
    8.7794   10.3116   23.0083 H    0  0  0  0  0  0  0  0  0  0  0  0
    9.0026    8.9401   24.1019 H    0  0  0  0  0  0  0  0  0  0  0  0
    7.0493    8.7344   25.5235 H    0  0  0  0  0  0  0  0  0  0  0  0
    3.6438   11.0985   28.9926 H    0  0  0  0  0  0  0  0  0  0  0  0
    4.9337   13.1395   28.0439 H    0  0  0  0  0  0  0  0  0  0  0  0
   10.2885   14.7655   24.8717 H    0  0  0  0  0  0  0  0  0  0  0  0
    9.6009   16.2093   24.2067 H    0  0  0  0  0  0  0  0  0  0  0  0
   12.1584   14.7441   23.4020 H    0  0  0  0  0  0  0  0  0  0  0  0
   12.0205   16.3560   24.0677 H    0  0  0  0  0  0  0  0  0  0  0  0
   12.5338   16.2820   21.5697 H    0  0  0  0  0  0  0  0  0  0  0  0
   11.1229   17.2450   21.9712 H    0  0  0  0  0  0  0  0  0  0  0  0
   11.1376   14.3310   21.0705 H    0  0  0  0  0  0  0  0  0  0  0  0
   10.9001   15.0426   17.6801 H    0  0  0  0  0  0  0  0  0  0  0  0
   11.0545   13.8783   18.9727 H    0  0  0  0  0  0  0  0  0  0  0  0
    8.6766   14.4978   20.9064 H    0  0  0  0  0  0  0  0  0  0  0  0
    8.6823   16.0634   21.6469 H    0  0  0  0  0  0  0  0  0  0  0  0
 12 13  1  0  0  0  0
 11 12  1  0  0  0  0
  9 11  2  0  0  0  0
  8  9  1  0  0  0  0
  7  8  1  0  0  0  0
  6  7  2  0  0  0  0
  5  6  1  0  0  0  0
  4  5  1  0  0  0  0
  3  4  1  0  0  0  0
  2  3  2  0  0  0  0
  1  2  1  0  0  0  0
 24  1  1  0  0  0  0
 25  1  1  0  0  0  0
 26  1  1  0  0  0  0
 27  3  1  0  0  0  0
 28  6  1  0  0  0  0
 29  7  1  0  0  0  0
 10  9  1  0  0  0  0
 14 13  2  0  0  0  0
 15 13  1  0  0  0  0
 16 15  1  0  0  0  0
 17 16  1  0  0  0  0
 30 16  1  0  0  0  0
 31 16  1  0  0  0  0
 18 17  1  0  0  0  0
 32 17  1  0  0  0  0
 33 17  1  0  0  0  0
 19 18  1  0  0  0  0
 34 18  1  0  0  0  0
 35 18  1  0  0  0  0
 20 19  1  0  0  0  0
 23 19  1  0  0  0  0
 36 19  1  0  0  0  0
 21 20  1  0  0  0  0
 22 20  2  0  0  0  0
 37 21  1  0  0  0  0
 38 21  1  0  0  0  0
 39 23  1  0  0  0  0
 40 23  1  0  0  0  0
  8  4  2  0  0  0  0
 11  2  1  0  0  0  0
 23 15  1  0  0  0  0
M  END
>  <FittedScore>
-29.79

$$$$
