A71EV2A-x6838a_best-RMSD
  FITTED

 52 55     0  0  0  0  0  0  0999 V2000
    9.0491    8.9473   23.8141 C    0  0  0  0  0  0  0  0  0  0  0  0
    8.6824   10.6740   24.1686 S    0  0  0  0  0  0  0  0  0  0  0  0
    7.2837   10.8200   25.2941 C    0  0  0  0  0  0  0  0  0  0  0  0
    6.5908    9.7014   25.6527 N    0  0  0  0  0  0  0  0  0  0  0  0
    5.5669    9.8460   26.5465 C    0  0  0  0  0  0  0  0  0  0  0  0
    5.1289   11.0395   27.0450 N    0  0  0  0  0  0  0  0  0  0  0  0
    5.7926   12.1718   26.6781 C    0  0  0  0  0  0  0  0  0  0  0  0
    5.2873   13.3625   27.1686 N    0  0  0  0  0  0  0  0  0  0  0  0
    5.5484   13.8328   28.5258 C    0  0  0  0  0  0  0  0  0  0  0  0
    4.3332   14.7384   28.7972 C    0  0  0  0  0  0  0  0  0  0  0  0
    3.9002   15.2887   27.4183 C    0  0  0  0  0  0  0  0  0  0  0  0
    4.6021   14.3948   26.3657 C    0  0  0  0  0  0  0  0  0  0  0  0
    6.9267   12.0914   25.8261 C    0  0  0  0  0  0  0  0  0  0  0  0
    7.8117   13.3176   25.5464 C    0  0  0  0  0  0  0  0  0  0  0  0
    7.8257   13.7581   24.0678 C    0  0  0  0  0  0  0  0  0  0  0  0
    6.7975   13.5732   23.4309 O    0  0  0  0  0  0  0  0  0  0  0  0
    8.9945   14.2428   23.4852 N    0  0  0  0  0  0  0  0  0  0  0  0
    9.0567   14.4449   21.9982 C    0  0  0  0  0  0  0  0  0  0  0  0
    9.3808   15.9113   21.5824 C    0  0  0  0  0  0  0  0  0  0  0  0
    8.2514   16.9137   21.8130 C    0  0  0  0  0  0  0  0  0  0  0  0
    8.4337   18.2355   20.9841 N    0  0  0  0  0  0  0  0  0  0  0  0
    7.3234   16.7918   22.6000 O    0  0  0  0  0  0  0  0  0  0  0  0
   10.6875   16.4482   22.2438 C    0  0  0  0  0  0  0  0  0  0  0  0
   10.6489   16.1070   23.7272 C    0  0  0  0  0  0  0  0  0  0  0  0
   11.6056   15.0916   24.2211 C    0  0  0  0  0  0  0  0  0  0  0  0
   10.1148   14.8499   24.3475 C    0  0  0  0  0  0  0  0  0  0  0  0
    8.3454    8.5562   23.0689 H    0  0  0  0  0  0  0  0  0  0  0  0
    8.9663    8.3618   24.7309 H    0  0  0  0  0  0  0  0  0  0  0  0
   10.0675    8.8637   23.4366 H    0  0  0  0  0  0  0  0  0  0  0  0
    5.0673    8.9405   26.9035 H    0  0  0  0  0  0  0  0  0  0  0  0
    6.4776   14.4126   28.5645 H    0  0  0  0  0  0  0  0  0  0  0  0
    5.6204   13.0363   29.2729 H    0  0  0  0  0  0  0  0  0  0  0  0
    4.5515   15.5317   29.5183 H    0  0  0  0  0  0  0  0  0  0  0  0
    3.5109   14.1419   29.2062 H    0  0  0  0  0  0  0  0  0  0  0  0
    4.1632   16.3474   27.3056 H    0  0  0  0  0  0  0  0  0  0  0  0
    2.8171   15.2167   27.3109 H    0  0  0  0  0  0  0  0  0  0  0  0
    5.2939   14.9832   25.7554 H    0  0  0  0  0  0  0  0  0  0  0  0
    3.8659   13.9597   25.6946 H    0  0  0  0  0  0  0  0  0  0  0  0
    8.8139   13.0591   25.9125 H    0  0  0  0  0  0  0  0  0  0  0  0
    7.5405   14.1937   26.1378 H    0  0  0  0  0  0  0  0  0  0  0  0
    8.1459   14.1492   21.4691 H    0  0  0  0  0  0  0  0  0  0  0  0
    9.8255   13.7841   21.5981 H    0  0  0  0  0  0  0  0  0  0  0  0
    9.5432   15.8914   20.4953 H    0  0  0  0  0  0  0  0  0  0  0  0
    7.5632   18.7887   20.9795 H    0  0  0  0  0  0  0  0  0  0  0  0
    9.1753   18.8322   21.3809 H    0  0  0  0  0  0  0  0  0  0  0  0
    8.6732   18.0485   19.9987 H    0  0  0  0  0  0  0  0  0  0  0  0
   10.7472   17.5413   22.1794 H    0  0  0  0  0  0  0  0  0  0  0  0
   11.5589   16.0752   21.7224 H    0  0  0  0  0  0  0  0  0  0  0  0
   10.3317   16.9489   24.3370 H    0  0  0  0  0  0  0  0  0  0  0  0
   12.1964   15.4540   25.0562 H    0  0  0  0  0  0  0  0  0  0  0  0
   12.2025   14.5795   23.4753 H    0  0  0  0  0  0  0  0  0  0  0  0
    9.5736   15.0948   25.2430 H    0  0  0  0  0  0  0  0  0  0  0  0
 14 15  1  0  0  0  0
 13 14  1  0  0  0  0
  3 13  1  0  0  0  0
  2  3  1  0  0  0  0
  1  2  1  0  0  0  0
 27  1  1  0  0  0  0
 28  1  1  0  0  0  0
 29  1  1  0  0  0  0
  4  3  2  0  0  0  0
  5  4  1  0  0  0  0
  6  5  2  0  0  0  0
 30  5  1  0  0  0  0
  7  6  1  0  0  0  0
  8  7  1  0  0  0  0
  9  8  1  0  0  0  0
 12  8  1  0  0  0  0
 10  9  1  0  0  0  0
 31  9  1  0  0  0  0
 32  9  1  0  0  0  0
 11 10  1  0  0  0  0
 33 10  1  0  0  0  0
 34 10  1  0  0  0  0
 35 11  1  0  0  0  0
 36 11  1  0  0  0  0
 37 12  1  0  0  0  0
 38 12  1  0  0  0  0
 39 14  1  0  0  0  0
 40 14  1  0  0  0  0
 16 15  2  0  0  0  0
 17 15  1  0  0  0  0
 18 17  1  0  0  0  0
 26 17  1  0  0  0  0
 19 18  1  0  0  0  0
 41 18  1  0  0  0  0
 42 18  1  0  0  0  0
 20 19  1  0  0  0  0
 23 19  1  0  0  0  0
 43 19  1  0  0  0  0
 21 20  1  0  0  0  0
 22 20  2  0  0  0  0
 44 21  1  0  0  0  0
 45 21  1  0  0  0  0
 46 21  1  0  0  0  0
 47 23  1  0  0  0  0
 48 23  1  0  0  0  0
 24 23  1  0  0  0  0
 25 24  1  0  0  0  0
 49 24  1  0  0  0  0
 50 25  1  0  0  0  0
 51 25  1  0  0  0  0
 52 26  1  0  0  0  0
  7 13  2  0  0  0  0
 11 12  1  0  0  0  0
 24 26  1  0  0  0  0
 26 25  1  0  0  0  0
M  CHG  1  21   1
M  END
>  <FittedScore>
-18.23

$$$$
