A71EV2A-x6838a_lowest-energy
  FITTED

 52 55     0  0  0  0  0  0  0999 V2000
    5.6683   10.0039   26.3562 C    0  0  0  0  0  0  0  0  0  0  0  0
    6.6470   11.5166   26.5924 S    0  0  0  0  0  0  0  0  0  0  0  0
    7.7854   11.5425   25.2131 C    0  0  0  0  0  0  0  0  0  0  0  0
    8.2403   10.3241   24.7848 N    0  0  0  0  0  0  0  0  0  0  0  0
    9.1279   10.3062   23.7595 C    0  0  0  0  0  0  0  0  0  0  0  0
    9.6013   11.4107   23.1388 N    0  0  0  0  0  0  0  0  0  0  0  0
    9.1594   12.6372   23.5357 C    0  0  0  0  0  0  0  0  0  0  0  0
    9.6801   13.7123   22.8482 N    0  0  0  0  0  0  0  0  0  0  0  0
   10.9418   14.3775   23.2054 C    0  0  0  0  0  0  0  0  0  0  0  0
   11.1895   15.4402   22.1209 C    0  0  0  0  0  0  0  0  0  0  0  0
    9.9494   15.4494   21.2124 C    0  0  0  0  0  0  0  0  0  0  0  0
    8.9636   14.3978   21.7660 C    0  0  0  0  0  0  0  0  0  0  0  0
    8.2169   12.7516   24.6017 C    0  0  0  0  0  0  0  0  0  0  0  0
    7.6571   14.1096   25.0640 C    0  0  0  0  0  0  0  0  0  0  0  0
    8.3533   14.7632   26.2677 C    0  0  0  0  0  0  0  0  0  0  0  0
    9.5542   14.6375   26.4012 O    0  0  0  0  0  0  0  0  0  0  0  0
    7.6322   15.6072   27.0995 N    0  0  0  0  0  0  0  0  0  0  0  0
    8.0421   15.9360   28.5017 C    0  0  0  0  0  0  0  0  0  0  0  0
    8.3200   17.4635   28.7350 C    0  0  0  0  0  0  0  0  0  0  0  0
    9.6178   17.8888   28.1079 C    0  0  0  0  0  0  0  0  0  0  0  0
   10.8242   17.2866   28.7460 N    0  0  0  0  0  0  0  0  0  0  0  0
    9.7640   18.8678   27.4330 O    0  0  0  0  0  0  0  0  0  0  0  0
    7.0899   18.3492   28.3422 C    0  0  0  0  0  0  0  0  0  0  0  0
    6.5428   17.8983   26.9857 C    0  0  0  0  0  0  0  0  0  0  0  0
    5.2745   17.0970   27.0251 C    0  0  0  0  0  0  0  0  0  0  0  0
    6.5094   16.4582   26.5000 C    0  0  0  0  0  0  0  0  0  0  0  0
    6.2758    9.1059   26.5202 H    0  0  0  0  0  0  0  0  0  0  0  0
    5.3018   10.0012   25.3365 H    0  0  0  0  0  0  0  0  0  0  0  0
    4.8439    9.9965   27.0616 H    0  0  0  0  0  0  0  0  0  0  0  0
    9.4739    9.3394   23.4095 H    0  0  0  0  0  0  0  0  0  0  0  0
   11.7795   13.6852   23.2911 H    0  0  0  0  0  0  0  0  0  0  0  0
   10.8333   14.8942   24.1529 H    0  0  0  0  0  0  0  0  0  0  0  0
   12.0861   15.2398   21.5228 H    0  0  0  0  0  0  0  0  0  0  0  0
   11.3245   16.4101   22.6107 H    0  0  0  0  0  0  0  0  0  0  0  0
   10.2172   15.2216   20.1752 H    0  0  0  0  0  0  0  0  0  0  0  0
    9.5066   16.4519   21.2260 H    0  0  0  0  0  0  0  0  0  0  0  0
    8.6859   13.6882   20.9830 H    0  0  0  0  0  0  0  0  0  0  0  0
    8.0487   14.8823   22.1083 H    0  0  0  0  0  0  0  0  0  0  0  0
    6.5969   13.9657   25.2674 H    0  0  0  0  0  0  0  0  0  0  0  0
    7.6724   14.8457   24.2619 H    0  0  0  0  0  0  0  0  0  0  0  0
    8.8821   15.3372   28.8628 H    0  0  0  0  0  0  0  0  0  0  0  0
    7.2135   15.6311   29.1475 H    0  0  0  0  0  0  0  0  0  0  0  0
    8.4493   17.6105   29.8158 H    0  0  0  0  0  0  0  0  0  0  0  0
   10.8942   17.5380   29.7553 H    0  0  0  0  0  0  0  0  0  0  0  0
   11.6775   17.6399   28.2873 H    0  0  0  0  0  0  0  0  0  0  0  0
   10.8508   16.2660   28.6996 H    0  0  0  0  0  0  0  0  0  0  0  0
    7.3491   19.4064   28.3186 H    0  0  0  0  0  0  0  0  0  0  0  0
    6.3365   18.2549   29.1201 H    0  0  0  0  0  0  0  0  0  0  0  0
    6.7358   18.5987   26.1797 H    0  0  0  0  0  0  0  0  0  0  0  0
    4.8830   16.7450   27.9821 H    0  0  0  0  0  0  0  0  0  0  0  0
    4.5026   17.3985   26.3173 H    0  0  0  0  0  0  0  0  0  0  0  0
    6.5162   16.2694   25.4432 H    0  0  0  0  0  0  0  0  0  0  0  0
 14 15  1  0  0  0  0
 13 14  1  0  0  0  0
  3 13  1  0  0  0  0
  2  3  1  0  0  0  0
  1  2  1  0  0  0  0
 27  1  1  0  0  0  0
 28  1  1  0  0  0  0
 29  1  1  0  0  0  0
  4  3  2  0  0  0  0
  5  4  1  0  0  0  0
  6  5  2  0  0  0  0
 30  5  1  0  0  0  0
  7  6  1  0  0  0  0
  8  7  1  0  0  0  0
  9  8  1  0  0  0  0
 12  8  1  0  0  0  0
 10  9  1  0  0  0  0
 31  9  1  0  0  0  0
 32  9  1  0  0  0  0
 11 10  1  0  0  0  0
 33 10  1  0  0  0  0
 34 10  1  0  0  0  0
 35 11  1  0  0  0  0
 36 11  1  0  0  0  0
 37 12  1  0  0  0  0
 38 12  1  0  0  0  0
 39 14  1  0  0  0  0
 40 14  1  0  0  0  0
 16 15  2  0  0  0  0
 17 15  1  0  0  0  0
 18 17  1  0  0  0  0
 26 17  1  0  0  0  0
 19 18  1  0  0  0  0
 41 18  1  0  0  0  0
 42 18  1  0  0  0  0
 20 19  1  0  0  0  0
 23 19  1  0  0  0  0
 43 19  1  0  0  0  0
 21 20  1  0  0  0  0
 22 20  2  0  0  0  0
 44 21  1  0  0  0  0
 45 21  1  0  0  0  0
 46 21  1  0  0  0  0
 47 23  1  0  0  0  0
 48 23  1  0  0  0  0
 24 23  1  0  0  0  0
 25 24  1  0  0  0  0
 49 24  1  0  0  0  0
 50 25  1  0  0  0  0
 51 25  1  0  0  0  0
 52 26  1  0  0  0  0
  7 13  2  0  0  0  0
 11 12  1  0  0  0  0
 24 26  1  0  0  0  0
 26 25  1  0  0  0  0
M  CHG  1  21   1
M  END
>  <FittedScore>
-20.75

$$$$
