A71EV2A-x4583b_lowest-energy
  FITTED

 42 44     0  0  0  0  0  0  0999 V2000
    9.9712   16.8522   19.1826 O    0  0  0  0  0  0  0  0  0  0  0  0
   10.3824   15.7909   19.6166 C    0  0  0  0  0  0  0  0  0  0  0  0
   10.6715   14.7881   18.7710 N    0  0  0  0  0  0  0  0  0  0  0  0
   10.3916   15.4023   21.0880 C    0  0  0  0  0  0  0  0  0  0  0  0
   11.1596   16.4389   21.9567 C    0  0  0  0  0  0  0  0  0  0  0  0
   11.0947   16.0224   23.4488 C    0  0  0  0  0  0  0  0  0  0  0  0
    9.6298   15.7559   23.8978 C    0  0  0  0  0  0  0  0  0  0  0  0
    8.9433   15.1400   21.6121 C    0  0  0  0  0  0  0  0  0  0  0  0
    8.9078   14.7372   23.0557 N    0  0  0  0  0  0  0  0  0  0  0  0
    8.1932   13.6453   23.5099 C    0  0  0  0  0  0  0  0  0  0  0  0
    7.3513   13.0993   22.8098 O    0  0  0  0  0  0  0  0  0  0  0  0
    8.4466   13.1173   24.9328 C    0  0  0  0  0  0  0  0  0  0  0  0
    8.1994   11.6577   25.0394 N    0  0  0  0  0  0  0  0  0  0  0  0
    9.1991   10.6988   24.5304 C    0  0  0  0  0  0  0  0  0  0  0  0
    7.4616   13.7336   25.9722 C    0  0  0  0  0  0  0  0  0  0  0  0
    6.7731   12.5383   26.5556 C    0  0  0  0  0  0  0  0  0  0  0  0
    7.2451   11.3744   25.9742 C    0  0  0  0  0  0  0  0  0  0  0  0
    5.7954   12.5017   27.5603 C    0  0  0  0  0  0  0  0  0  0  0  0
    5.2951   11.2564   27.9651 C    0  0  0  0  0  0  0  0  0  0  0  0
    5.7637   10.0684   27.3736 C    0  0  0  0  0  0  0  0  0  0  0  0
    6.7431   10.1227   26.3659 C    0  0  0  0  0  0  0  0  0  0  0  0
   10.8035   13.8321   19.1072 H    0  0  0  0  0  0  0  0  0  0  0  0
   10.5960   14.9476   17.7762 H    0  0  0  0  0  0  0  0  0  0  0  0
   10.9375   14.4541   21.1938 H    0  0  0  0  0  0  0  0  0  0  0  0
   12.2043   16.4970   21.6295 H    0  0  0  0  0  0  0  0  0  0  0  0
   10.7354   17.4417   21.8262 H    0  0  0  0  0  0  0  0  0  0  0  0
   11.6959   15.1229   23.6048 H    0  0  0  0  0  0  0  0  0  0  0  0
   11.5349   16.8094   24.0638 H    0  0  0  0  0  0  0  0  0  0  0  0
    9.6482   15.5174   24.9566 H    0  0  0  0  0  0  0  0  0  0  0  0
    9.0750   16.6976   23.8495 H    0  0  0  0  0  0  0  0  0  0  0  0
    8.4950   14.3799   20.9676 H    0  0  0  0  0  0  0  0  0  0  0  0
    8.3295   16.0352   21.4763 H    0  0  0  0  0  0  0  0  0  0  0  0
    9.4780   13.3024   25.2468 H    0  0  0  0  0  0  0  0  0  0  0  0
    8.7251    9.8420   24.0481 H    0  0  0  0  0  0  0  0  0  0  0  0
    9.8295   10.3274   25.3381 H    0  0  0  0  0  0  0  0  0  0  0  0
    9.8551   11.1453   23.7804 H    0  0  0  0  0  0  0  0  0  0  0  0
    8.0059   14.2847   26.7466 H    0  0  0  0  0  0  0  0  0  0  0  0
    6.7341   14.4127   25.5144 H    0  0  0  0  0  0  0  0  0  0  0  0
    5.4355   13.4218   28.0121 H    0  0  0  0  0  0  0  0  0  0  0  0
    4.5382   11.2040   28.7446 H    0  0  0  0  0  0  0  0  0  0  0  0
    5.3764    9.1060   27.6920 H    0  0  0  0  0  0  0  0  0  0  0  0
    7.1003    9.2051   25.9089 H    0  0  0  0  0  0  0  0  0  0  0  0
  9 10  1  0  0  0  0
  7  9  1  0  0  0  0
  6  7  1  0  0  0  0
  5  6  1  0  0  0  0
  4  5  1  0  0  0  0
  2  4  1  0  0  0  0
  1  2  2  0  0  0  0
  3  2  1  0  0  0  0
 22  3  1  0  0  0  0
 23  3  1  0  0  0  0
 24  4  1  0  0  0  0
 25  5  1  0  0  0  0
 26  5  1  0  0  0  0
 27  6  1  0  0  0  0
 28  6  1  0  0  0  0
 29  7  1  0  0  0  0
 30  7  1  0  0  0  0
  8  4  1  0  0  0  0
 31  8  1  0  0  0  0
 32  8  1  0  0  0  0
 11 10  2  0  0  0  0
 12 10  1  0  0  0  0
 33 12  1  0  0  0  0
 13 12  1  0  0  0  0
 17 13  1  0  0  0  0
 14 13  1  0  0  0  0
 34 14  1  0  0  0  0
 35 14  1  0  0  0  0
 36 14  1  0  0  0  0
 15 12  1  0  0  0  0
 37 15  1  0  0  0  0
 38 15  1  0  0  0  0
 16 15  1  0  0  0  0
 21 17  2  0  0  0  0
 18 16  2  0  0  0  0
 39 18  1  0  0  0  0
 19 18  1  0  0  0  0
 40 19  1  0  0  0  0
 20 19  2  0  0  0  0
 41 20  1  0  0  0  0
 42 21  1  0  0  0  0
  9  8  1  0  0  0  0
 17 16  1  0  0  0  0
 21 20  1  0  0  0  0
M  END
>  <FittedScore>
-30.67

$$$$
