A71EV2A-x4583b_best-RMSD
  FITTED

 42 44     0  0  0  0  0  0  0999 V2000
    9.9520   16.8576   19.2864 O    0  0  0  0  0  0  0  0  0  0  0  0
   10.3200   15.7693   19.6811 C    0  0  0  0  0  0  0  0  0  0  0  0
   10.6137   14.8053   18.7935 N    0  0  0  0  0  0  0  0  0  0  0  0
   10.3560   15.3307   21.1435 C    0  0  0  0  0  0  0  0  0  0  0  0
   11.1764   16.3097   22.0303 C    0  0  0  0  0  0  0  0  0  0  0  0
   11.1879   15.8055   23.4981 C    0  0  0  0  0  0  0  0  0  0  0  0
    9.7509   15.5162   24.0214 C    0  0  0  0  0  0  0  0  0  0  0  0
    8.9273   15.0950   21.7284 C    0  0  0  0  0  0  0  0  0  0  0  0
    8.9417   14.5895   23.1479 N    0  0  0  0  0  0  0  0  0  0  0  0
    8.1728   13.5208   23.5750 C    0  0  0  0  0  0  0  0  0  0  0  0
    7.2783   13.0740   22.8738 O    0  0  0  0  0  0  0  0  0  0  0  0
    8.3794   12.9207   24.9830 C    0  0  0  0  0  0  0  0  0  0  0  0
    8.0454   11.4744   25.0472 N    0  0  0  0  0  0  0  0  0  0  0  0
    9.0270   10.4902   24.5514 C    0  0  0  0  0  0  0  0  0  0  0  0
    7.4338   13.5746   26.0348 C    0  0  0  0  0  0  0  0  0  0  0  0
    6.7077   12.4020   26.6302 C    0  0  0  0  0  0  0  0  0  0  0  0
    7.1164   11.2263   26.0203 C    0  0  0  0  0  0  0  0  0  0  0  0
    5.7501   12.4036   27.6525 C    0  0  0  0  0  0  0  0  0  0  0  0
    5.2034   11.1744   28.0607 C    0  0  0  0  0  0  0  0  0  0  0  0
    5.6168    9.9782   27.4511 C    0  0  0  0  0  0  0  0  0  0  0  0
    6.5773    9.9994   26.4272 C    0  0  0  0  0  0  0  0  0  0  0  0
   10.6204   15.0261   17.8051 H    0  0  0  0  0  0  0  0  0  0  0  0
   10.7574   13.8398   19.0942 H    0  0  0  0  0  0  0  0  0  0  0  0
   10.8715   14.3634   21.2043 H    0  0  0  0  0  0  0  0  0  0  0  0
   12.2022   16.3755   21.6562 H    0  0  0  0  0  0  0  0  0  0  0  0
   10.7588   17.3217   21.9856 H    0  0  0  0  0  0  0  0  0  0  0  0
   11.7913   14.8949   23.5654 H    0  0  0  0  0  0  0  0  0  0  0  0
   11.6704   16.5504   24.1361 H    0  0  0  0  0  0  0  0  0  0  0  0
    9.8522   15.1750   25.0482 H    0  0  0  0  0  0  0  0  0  0  0  0
    9.2086   16.4621   24.1053 H    0  0  0  0  0  0  0  0  0  0  0  0
    8.4106   14.4034   21.0572 H    0  0  0  0  0  0  0  0  0  0  0  0
    8.3457   16.0218   21.6937 H    0  0  0  0  0  0  0  0  0  0  0  0
    9.4158   13.0316   25.3144 H    0  0  0  0  0  0  0  0  0  0  0  0
    8.5635    9.5335   24.3051 H    0  0  0  0  0  0  0  0  0  0  0  0
    9.8135   10.2991   25.2851 H    0  0  0  0  0  0  0  0  0  0  0  0
    9.5120   10.8270   23.6337 H    0  0  0  0  0  0  0  0  0  0  0  0
    8.0044   14.1057   26.7987 H    0  0  0  0  0  0  0  0  0  0  0  0
    6.7227   14.2720   25.5864 H    0  0  0  0  0  0  0  0  0  0  0  0
    5.4366   13.3299   28.1191 H    0  0  0  0  0  0  0  0  0  0  0  0
    4.4593   11.1479   28.8490 H    0  0  0  0  0  0  0  0  0  0  0  0
    5.1869    9.0286   27.7673 H    0  0  0  0  0  0  0  0  0  0  0  0
    6.8819    9.0687   25.9585 H    0  0  0  0  0  0  0  0  0  0  0  0
  9 10  1  0  0  0  0
  7  9  1  0  0  0  0
  6  7  1  0  0  0  0
  5  6  1  0  0  0  0
  4  5  1  0  0  0  0
  2  4  1  0  0  0  0
  1  2  2  0  0  0  0
  3  2  1  0  0  0  0
 22  3  1  0  0  0  0
 23  3  1  0  0  0  0
 24  4  1  0  0  0  0
 25  5  1  0  0  0  0
 26  5  1  0  0  0  0
 27  6  1  0  0  0  0
 28  6  1  0  0  0  0
 29  7  1  0  0  0  0
 30  7  1  0  0  0  0
  8  4  1  0  0  0  0
 31  8  1  0  0  0  0
 32  8  1  0  0  0  0
 11 10  2  0  0  0  0
 12 10  1  0  0  0  0
 33 12  1  0  0  0  0
 13 12  1  0  0  0  0
 17 13  1  0  0  0  0
 14 13  1  0  0  0  0
 34 14  1  0  0  0  0
 35 14  1  0  0  0  0
 36 14  1  0  0  0  0
 15 12  1  0  0  0  0
 37 15  1  0  0  0  0
 38 15  1  0  0  0  0
 16 15  1  0  0  0  0
 21 17  2  0  0  0  0
 18 16  2  0  0  0  0
 39 18  1  0  0  0  0
 19 18  1  0  0  0  0
 40 19  1  0  0  0  0
 20 19  2  0  0  0  0
 41 20  1  0  0  0  0
 42 21  1  0  0  0  0
  9  8  1  0  0  0  0
 17 16  1  0  0  0  0
 21 20  1  0  0  0  0
M  END
>  <FittedScore>
-31.16

$$$$
