A71EV2A-x4305a_best-RMSD
  FITTED

 45 46     0  0  0  0  0  0  0999 V2000
    9.8220   16.5717   19.3219 O    0  0  0  0  0  0  0  0  0  0  0  0
   10.3375   15.5369   19.6944 C    0  0  0  0  0  0  0  0  0  0  0  0
   10.8432   14.6735   18.7964 N    0  0  0  0  0  0  0  0  0  0  0  0
   10.2552   15.0144   21.1272 C    0  0  0  0  0  0  0  0  0  0  0  0
   11.1717   15.8096   22.0910 C    0  0  0  0  0  0  0  0  0  0  0  0
   11.1172   15.1754   23.5034 C    0  0  0  0  0  0  0  0  0  0  0  0
    9.6618   15.0364   24.0350 C    0  0  0  0  0  0  0  0  0  0  0  0
    8.7987   15.0271   21.6730 C    0  0  0  0  0  0  0  0  0  0  0  0
    8.6351   14.4876   23.0651 N    0  0  0  0  0  0  0  0  0  0  0  0
    7.5519   13.6916   23.4107 C    0  0  0  0  0  0  0  0  0  0  0  0
    6.7298   13.2872   22.6077 O    0  0  0  0  0  0  0  0  0  0  0  0
    7.3909   13.4432   24.7378 N    0  0  0  0  0  0  0  0  0  0  0  0
    6.6076   12.4373   25.3868 C    0  0  0  0  0  0  0  0  0  0  0  0
    5.6515   12.8362   26.3344 C    0  0  0  0  0  0  0  0  0  0  0  0
    4.9168   11.8766   27.0484 C    0  0  0  0  0  0  0  0  0  0  0  0
    5.1480   10.5087   26.8356 C    0  0  0  0  0  0  0  0  0  0  0  0
    6.1038   10.1064   25.8966 C    0  0  0  0  0  0  0  0  0  0  0  0
    6.8398   11.0633   25.1756 C    0  0  0  0  0  0  0  0  0  0  0  0
    7.7904   10.6444   24.2560 O    0  0  0  0  0  0  0  0  0  0  0  0
    8.9940    9.9183   24.6284 C    0  0  0  0  0  0  0  0  0  0  0  0
    9.2455    8.8520   23.5381 C    0  0  0  0  0  0  0  0  0  0  0  0
   10.1849   10.9036   24.7536 C    0  0  0  0  0  0  0  0  0  0  0  0
   10.8841   14.9242   17.8180 H    0  0  0  0  0  0  0  0  0  0  0  0
   11.0275   13.7209   19.0728 H    0  0  0  0  0  0  0  0  0  0  0  0
   10.5826   13.9676   21.1480 H    0  0  0  0  0  0  0  0  0  0  0  0
   12.2004   15.8137   21.7251 H    0  0  0  0  0  0  0  0  0  0  0  0
   10.8473   16.8559   22.1412 H    0  0  0  0  0  0  0  0  0  0  0  0
   11.5906   14.1931   23.4863 H    0  0  0  0  0  0  0  0  0  0  0  0
   11.7018   15.7858   24.1973 H    0  0  0  0  0  0  0  0  0  0  0  0
    9.7463   14.4113   24.9288 H    0  0  0  0  0  0  0  0  0  0  0  0
    9.3066   16.0161   24.3802 H    0  0  0  0  0  0  0  0  0  0  0  0
    8.1758   14.4883   20.9581 H    0  0  0  0  0  0  0  0  0  0  0  0
    8.4273   16.0541   21.6843 H    0  0  0  0  0  0  0  0  0  0  0  0
    7.8854   14.0290   25.4061 H    0  0  0  0  0  0  0  0  0  0  0  0
    5.4744   13.8931   26.5293 H    0  0  0  0  0  0  0  0  0  0  0  0
    4.1801   12.1958   27.7716 H    0  0  0  0  0  0  0  0  0  0  0  0
    4.5808    9.7639   27.3889 H    0  0  0  0  0  0  0  0  0  0  0  0
    6.2853    9.0460   25.7254 H    0  0  0  0  0  0  0  0  0  0  0  0
    8.8430    9.4086   25.5834 H    0  0  0  0  0  0  0  0  0  0  0  0
    9.4383    9.3442   22.5767 H    0  0  0  0  0  0  0  0  0  0  0  0
    8.3752    8.1999   23.4096 H    0  0  0  0  0  0  0  0  0  0  0  0
   10.0969    8.2103   23.7879 H    0  0  0  0  0  0  0  0  0  0  0  0
   11.0669   10.3765   25.1368 H    0  0  0  0  0  0  0  0  0  0  0  0
    9.9619   11.7277   25.4362 H    0  0  0  0  0  0  0  0  0  0  0  0
   10.4553   11.3236   23.7765 H    0  0  0  0  0  0  0  0  0  0  0  0
  9 10  1  0  0  0  0
  7  9  1  0  0  0  0
  6  7  1  0  0  0  0
  5  6  1  0  0  0  0
  4  5  1  0  0  0  0
  2  4  1  0  0  0  0
  1  2  2  0  0  0  0
  3  2  1  0  0  0  0
 23  3  1  0  0  0  0
 24  3  1  0  0  0  0
 25  4  1  0  0  0  0
 26  5  1  0  0  0  0
 27  5  1  0  0  0  0
 28  6  1  0  0  0  0
 29  6  1  0  0  0  0
 30  7  1  0  0  0  0
 31  7  1  0  0  0  0
  8  4  1  0  0  0  0
 32  8  1  0  0  0  0
 33  8  1  0  0  0  0
 11 10  2  0  0  0  0
 12 10  1  0  0  0  0
 34 12  1  0  0  0  0
 13 12  1  0  0  0  0
 14 13  1  0  0  0  0
 35 14  1  0  0  0  0
 15 14  2  0  0  0  0
 36 15  1  0  0  0  0
 16 15  1  0  0  0  0
 37 16  1  0  0  0  0
 17 16  2  0  0  0  0
 38 17  1  0  0  0  0
 18 17  1  0  0  0  0
 19 18  1  0  0  0  0
 20 19  1  0  0  0  0
 39 20  1  0  0  0  0
 21 20  1  0  0  0  0
 40 21  1  0  0  0  0
 41 21  1  0  0  0  0
 42 21  1  0  0  0  0
 22 20  1  0  0  0  0
 43 22  1  0  0  0  0
 44 22  1  0  0  0  0
 45 22  1  0  0  0  0
  9  8  1  0  0  0  0
 18 13  2  0  0  0  0
M  END
>  <FittedScore>
-35.60

$$$$
