A71EV2A-x4305a_lowest-energy
  FITTED

 45 46     0  0  0  0  0  0  0999 V2000
    9.8201   16.6247   19.3686 O    0  0  0  0  0  0  0  0  0  0  0  0
   10.3330   15.5794   19.7236 C    0  0  0  0  0  0  0  0  0  0  0  0
   10.8940   14.7487   18.8279 N    0  0  0  0  0  0  0  0  0  0  0  0
   10.2421   15.0212   21.1393 C    0  0  0  0  0  0  0  0  0  0  0  0
   11.2454   15.7218   22.0872 C    0  0  0  0  0  0  0  0  0  0  0  0
   11.1472   15.1144   23.5066 C    0  0  0  0  0  0  0  0  0  0  0  0
    9.6831   15.0729   24.0371 C    0  0  0  0  0  0  0  0  0  0  0  0
    8.7963   15.0656   21.7043 C    0  0  0  0  0  0  0  0  0  0  0  0
    8.6522   14.5050   23.0881 N    0  0  0  0  0  0  0  0  0  0  0  0
    7.5952   13.6814   23.4220 C    0  0  0  0  0  0  0  0  0  0  0  0
    6.8046   13.2350   22.6086 O    0  0  0  0  0  0  0  0  0  0  0  0
    7.3760   13.4856   24.7421 N    0  0  0  0  0  0  0  0  0  0  0  0
    6.6294   12.4569   25.3976 C    0  0  0  0  0  0  0  0  0  0  0  0
    5.6619   12.8411   26.3354 C    0  0  0  0  0  0  0  0  0  0  0  0
    4.9540   11.8679   27.0573 C    0  0  0  0  0  0  0  0  0  0  0  0
    5.2250   10.5085   26.8590 C    0  0  0  0  0  0  0  0  0  0  0  0
    6.1905   10.1164   25.9247 C    0  0  0  0  0  0  0  0  0  0  0  0
    6.8958   11.0850   25.1902 C    0  0  0  0  0  0  0  0  0  0  0  0
    7.8439   10.6551   24.2789 O    0  0  0  0  0  0  0  0  0  0  0  0
    9.1653   10.2143   24.6840 C    0  0  0  0  0  0  0  0  0  0  0  0
    9.6609    9.2061   23.6205 C    0  0  0  0  0  0  0  0  0  0  0  0
   10.0947   11.4415   24.8404 C    0  0  0  0  0  0  0  0  0  0  0  0
   10.9207   14.9968   17.8486 H    0  0  0  0  0  0  0  0  0  0  0  0
   11.1198   13.7953   19.1073 H    0  0  0  0  0  0  0  0  0  0  0  0
   10.5184   13.9585   21.1109 H    0  0  0  0  0  0  0  0  0  0  0  0
   12.2663   15.5952   21.7120 H    0  0  0  0  0  0  0  0  0  0  0  0
   11.0435   16.7950   22.1258 H    0  0  0  0  0  0  0  0  0  0  0  0
   11.5622   14.0987   23.5057 H    0  0  0  0  0  0  0  0  0  0  0  0
   11.7659   15.6957   24.1946 H    0  0  0  0  0  0  0  0  0  0  0  0
    9.7314   14.5200   24.9792 H    0  0  0  0  0  0  0  0  0  0  0  0
    9.3698   16.0830   24.3094 H    0  0  0  0  0  0  0  0  0  0  0  0
    8.1589   14.5414   20.9876 H    0  0  0  0  0  0  0  0  0  0  0  0
    8.4370   16.0965   21.7270 H    0  0  0  0  0  0  0  0  0  0  0  0
    7.7883   14.1477   25.3924 H    0  0  0  0  0  0  0  0  0  0  0  0
    5.4547   13.8940   26.5084 H    0  0  0  0  0  0  0  0  0  0  0  0
    4.2015   12.1770   27.7745 H    0  0  0  0  0  0  0  0  0  0  0  0
    4.6842    9.7540   27.4300 H    0  0  0  0  0  0  0  0  0  0  0  0
    6.3872    9.0599   25.7600 H    0  0  0  0  0  0  0  0  0  0  0  0
    9.1093    9.6894   25.6420 H    0  0  0  0  0  0  0  0  0  0  0  0
   10.6748    8.8681   23.8514 H    0  0  0  0  0  0  0  0  0  0  0  0
    9.6671    9.6469   22.6199 H    0  0  0  0  0  0  0  0  0  0  0  0
    9.0164    8.3217   23.5982 H    0  0  0  0  0  0  0  0  0  0  0  0
   10.1018   12.0400   23.9286 H    0  0  0  0  0  0  0  0  0  0  0  0
   11.1186   11.1277   25.0541 H    0  0  0  0  0  0  0  0  0  0  0  0
    9.7699   12.0672   25.6716 H    0  0  0  0  0  0  0  0  0  0  0  0
  9 10  1  0  0  0  0
  7  9  1  0  0  0  0
  6  7  1  0  0  0  0
  5  6  1  0  0  0  0
  4  5  1  0  0  0  0
  2  4  1  0  0  0  0
  1  2  2  0  0  0  0
  3  2  1  0  0  0  0
 23  3  1  0  0  0  0
 24  3  1  0  0  0  0
 25  4  1  0  0  0  0
 26  5  1  0  0  0  0
 27  5  1  0  0  0  0
 28  6  1  0  0  0  0
 29  6  1  0  0  0  0
 30  7  1  0  0  0  0
 31  7  1  0  0  0  0
  8  4  1  0  0  0  0
 32  8  1  0  0  0  0
 33  8  1  0  0  0  0
 11 10  2  0  0  0  0
 12 10  1  0  0  0  0
 34 12  1  0  0  0  0
 13 12  1  0  0  0  0
 14 13  1  0  0  0  0
 35 14  1  0  0  0  0
 15 14  2  0  0  0  0
 36 15  1  0  0  0  0
 16 15  1  0  0  0  0
 37 16  1  0  0  0  0
 17 16  2  0  0  0  0
 38 17  1  0  0  0  0
 18 17  1  0  0  0  0
 19 18  1  0  0  0  0
 20 19  1  0  0  0  0
 39 20  1  0  0  0  0
 21 20  1  0  0  0  0
 40 21  1  0  0  0  0
 41 21  1  0  0  0  0
 42 21  1  0  0  0  0
 22 20  1  0  0  0  0
 43 22  1  0  0  0  0
 44 22  1  0  0  0  0
 45 22  1  0  0  0  0
  9  8  1  0  0  0  0
 18 13  2  0  0  0  0
M  END
>  <FittedScore>
-36.32

$$$$
