A71EV2A-x4374a_best-RMSD
  FITTED

 40 41     0  0  0  0  0  0  0999 V2000
    7.2881   13.0250   22.8340 O    0  0  0  0  0  0  0  0  0  0  0  0
    8.0873   13.5937   23.5672 C    0  0  0  0  0  0  0  0  0  0  0  0
    8.8463   14.6556   23.1204 N    0  0  0  0  0  0  0  0  0  0  0  0
    9.7188   15.5527   23.9638 C    0  0  0  0  0  0  0  0  0  0  0  0
   11.1675   15.6916   23.4266 C    0  0  0  0  0  0  0  0  0  0  0  0
   11.1785   16.1891   21.9583 C    0  0  0  0  0  0  0  0  0  0  0  0
    8.8184   15.1498   21.7038 C    0  0  0  0  0  0  0  0  0  0  0  0
   10.2498   15.2913   21.0874 C    0  0  0  0  0  0  0  0  0  0  0  0
   10.2140   15.7707   19.6367 C    0  0  0  0  0  0  0  0  0  0  0  0
    9.7336   16.8320   19.2734 O    0  0  0  0  0  0  0  0  0  0  0  0
   10.6292   14.8583   18.7365 N    0  0  0  0  0  0  0  0  0  0  0  0
    8.3006   13.0944   25.0066 C    0  0  0  0  0  0  0  0  0  0  0  0
    7.4702   11.8668   25.3853 C    0  0  0  0  0  0  0  0  0  0  0  0
    7.7906   10.5570   24.9324 C    0  0  0  0  0  0  0  0  0  0  0  0
    9.0048   10.2319   24.0411 C    0  0  0  0  0  0  0  0  0  0  0  0
   10.2124   10.0817   24.7860 O    0  0  0  0  0  0  0  0  0  0  0  0
    6.9648    9.4930   25.3368 C    0  0  0  0  0  0  0  0  0  0  0  0
    5.8584    9.7071   26.1681 C    0  0  0  0  0  0  0  0  0  0  0  0
    5.5425   10.9952   26.6039 C    0  0  0  0  0  0  0  0  0  0  0  0
    6.3407   12.0696   26.2086 C    0  0  0  0  0  0  0  0  0  0  0  0
    9.2548   16.5424   24.0082 H    0  0  0  0  0  0  0  0  0  0  0  0
    9.7996   15.2444   25.0044 H    0  0  0  0  0  0  0  0  0  0  0  0
   11.7270   16.3869   24.0565 H    0  0  0  0  0  0  0  0  0  0  0  0
   11.6772   14.7256   23.4962 H    0  0  0  0  0  0  0  0  0  0  0  0
   10.8574   17.2351   21.9181 H    0  0  0  0  0  0  0  0  0  0  0  0
   12.2006   16.1601   21.5689 H    0  0  0  0  0  0  0  0  0  0  0  0
    8.2895   16.1103   21.6701 H    0  0  0  0  0  0  0  0  0  0  0  0
    8.2505   14.4828   21.0496 H    0  0  0  0  0  0  0  0  0  0  0  0
   10.6896   14.2848   21.1216 H    0  0  0  0  0  0  0  0  0  0  0  0
   10.6299   15.0921   17.7526 H    0  0  0  0  0  0  0  0  0  0  0  0
   10.8444   13.9043   19.0257 H    0  0  0  0  0  0  0  0  0  0  0  0
    8.0703   13.9043   25.7054 H    0  0  0  0  0  0  0  0  0  0  0  0
    9.3573   12.8625   25.1694 H    0  0  0  0  0  0  0  0  0  0  0  0
    9.1588   10.9837   23.2668 H    0  0  0  0  0  0  0  0  0  0  0  0
    8.8450    9.3084   23.4847 H    0  0  0  0  0  0  0  0  0  0  0  0
   10.0923    9.3602   25.4375 H    0  0  0  0  0  0  0  0  0  0  0  0
    7.1925    8.4772   25.0225 H    0  0  0  0  0  0  0  0  0  0  0  0
    5.2428    8.8666   26.4793 H    0  0  0  0  0  0  0  0  0  0  0  0
    4.6785   11.1620   27.2418 H    0  0  0  0  0  0  0  0  0  0  0  0
    6.0747   13.0679   26.5508 H    0  0  0  0  0  0  0  0  0  0  0  0
  2  1  2  0  0  0  0
  3  2  1  0  0  0  0
  4  3  1  0  0  0  0
 21  4  1  0  0  0  0
 22  4  1  0  0  0  0
  5  4  1  0  0  0  0
 23  5  1  0  0  0  0
 24  5  1  0  0  0  0
  6  5  1  0  0  0  0
 25  6  1  0  0  0  0
 26  6  1  0  0  0  0
  7  3  1  0  0  0  0
 27  7  1  0  0  0  0
 28  7  1  0  0  0  0
  8  6  1  0  0  0  0
  9  8  1  0  0  0  0
 29  8  1  0  0  0  0
 10  9  2  0  0  0  0
 11  9  1  0  0  0  0
 30 11  1  0  0  0  0
 31 11  1  0  0  0  0
 12  2  1  0  0  0  0
 32 12  1  0  0  0  0
 33 12  1  0  0  0  0
 13 12  1  0  0  0  0
 20 13  2  0  0  0  0
 14 13  1  0  0  0  0
 15 14  1  0  0  0  0
 34 15  1  0  0  0  0
 35 15  1  0  0  0  0
 16 15  1  0  0  0  0
 36 16  1  0  0  0  0
 17 14  2  0  0  0  0
 37 17  1  0  0  0  0
 18 17  1  0  0  0  0
 38 18  1  0  0  0  0
 19 18  2  0  0  0  0
 39 19  1  0  0  0  0
 40 20  1  0  0  0  0
  8  7  1  0  0  0  0
 20 19  1  0  0  0  0
M  END
>  <FittedScore>
-34.65

$$$$
