A71EV2A-x4374a_lowest-energy
  FITTED

 40 41     0  0  0  0  0  0  0999 V2000
    7.2696   13.0030   22.8068 O    0  0  0  0  0  0  0  0  0  0  0  0
    8.0293   13.5998   23.5548 C    0  0  0  0  0  0  0  0  0  0  0  0
    8.7717   14.6785   23.1135 N    0  0  0  0  0  0  0  0  0  0  0  0
    9.6639   15.5545   23.9546 C    0  0  0  0  0  0  0  0  0  0  0  0
   11.1128   15.6672   23.4077 C    0  0  0  0  0  0  0  0  0  0  0  0
   11.1224   16.1622   21.9378 C    0  0  0  0  0  0  0  0  0  0  0  0
    8.7468   15.1772   21.6962 C    0  0  0  0  0  0  0  0  0  0  0  0
   10.1777   15.2798   21.0715 C    0  0  0  0  0  0  0  0  0  0  0  0
   10.1544   15.7588   19.6234 C    0  0  0  0  0  0  0  0  0  0  0  0
    9.6793   16.8202   19.2564 O    0  0  0  0  0  0  0  0  0  0  0  0
   10.5922   14.8523   18.7290 N    0  0  0  0  0  0  0  0  0  0  0  0
    8.2111   13.1281   25.0101 C    0  0  0  0  0  0  0  0  0  0  0  0
    7.4379   11.8540   25.3554 C    0  0  0  0  0  0  0  0  0  0  0  0
    7.8537   10.5647   24.9180 C    0  0  0  0  0  0  0  0  0  0  0  0
    9.1315   10.3050   24.1102 C    0  0  0  0  0  0  0  0  0  0  0  0
   10.2893   10.2363   24.9349 O    0  0  0  0  0  0  0  0  0  0  0  0
    7.0628    9.4555   25.2528 C    0  0  0  0  0  0  0  0  0  0  0  0
    5.9003    9.6023   26.0161 C    0  0  0  0  0  0  0  0  0  0  0  0
    5.4888   10.8665   26.4412 C    0  0  0  0  0  0  0  0  0  0  0  0
    6.2499   11.9885   26.1022 C    0  0  0  0  0  0  0  0  0  0  0  0
    9.2189   16.5521   24.0078 H    0  0  0  0  0  0  0  0  0  0  0  0
    9.7458   15.2428   24.9936 H    0  0  0  0  0  0  0  0  0  0  0  0
   11.6877   16.3544   24.0334 H    0  0  0  0  0  0  0  0  0  0  0  0
   11.6091   14.6926   23.4753 H    0  0  0  0  0  0  0  0  0  0  0  0
   10.8134   17.2126   21.8989 H    0  0  0  0  0  0  0  0  0  0  0  0
   12.1413   16.1193   21.5402 H    0  0  0  0  0  0  0  0  0  0  0  0
    8.2471   16.1543   21.6676 H    0  0  0  0  0  0  0  0  0  0  0  0
    8.1530   14.5309   21.0453 H    0  0  0  0  0  0  0  0  0  0  0  0
   10.5861   14.2618   21.1082 H    0  0  0  0  0  0  0  0  0  0  0  0
   10.6079   15.0852   17.7458 H    0  0  0  0  0  0  0  0  0  0  0  0
   10.8119   13.8980   19.0177 H    0  0  0  0  0  0  0  0  0  0  0  0
    7.9033   13.9331   25.6839 H    0  0  0  0  0  0  0  0  0  0  0  0
    9.2692   12.9569   25.2242 H    0  0  0  0  0  0  0  0  0  0  0  0
    9.2924   11.0738   23.3522 H    0  0  0  0  0  0  0  0  0  0  0  0
    9.0587    9.3706   23.5469 H    0  0  0  0  0  0  0  0  0  0  0  0
   10.2225    9.4536   25.5183 H    0  0  0  0  0  0  0  0  0  0  0  0
    7.3596    8.4589   24.9343 H    0  0  0  0  0  0  0  0  0  0  0  0
    5.3130    8.7243   26.2734 H    0  0  0  0  0  0  0  0  0  0  0  0
    4.5761   10.9783   27.0193 H    0  0  0  0  0  0  0  0  0  0  0  0
    5.9051   12.9690   26.4266 H    0  0  0  0  0  0  0  0  0  0  0  0
  2  1  2  0  0  0  0
  3  2  1  0  0  0  0
  4  3  1  0  0  0  0
 21  4  1  0  0  0  0
 22  4  1  0  0  0  0
  5  4  1  0  0  0  0
 23  5  1  0  0  0  0
 24  5  1  0  0  0  0
  6  5  1  0  0  0  0
 25  6  1  0  0  0  0
 26  6  1  0  0  0  0
  7  3  1  0  0  0  0
 27  7  1  0  0  0  0
 28  7  1  0  0  0  0
  8  6  1  0  0  0  0
  9  8  1  0  0  0  0
 29  8  1  0  0  0  0
 10  9  2  0  0  0  0
 11  9  1  0  0  0  0
 30 11  1  0  0  0  0
 31 11  1  0  0  0  0
 12  2  1  0  0  0  0
 32 12  1  0  0  0  0
 33 12  1  0  0  0  0
 13 12  1  0  0  0  0
 20 13  2  0  0  0  0
 14 13  1  0  0  0  0
 15 14  1  0  0  0  0
 34 15  1  0  0  0  0
 35 15  1  0  0  0  0
 16 15  1  0  0  0  0
 36 16  1  0  0  0  0
 17 14  2  0  0  0  0
 37 17  1  0  0  0  0
 18 17  1  0  0  0  0
 38 18  1  0  0  0  0
 19 18  2  0  0  0  0
 39 19  1  0  0  0  0
 40 20  1  0  0  0  0
  8  7  1  0  0  0  0
 20 19  1  0  0  0  0
M  END
>  <FittedScore>
-34.94

$$$$
