A71EV2A-x5576a_best-RMSD
  FITTED

 49 51     0  0  0  0  0  0  0999 V2000
   10.6075   14.9045   18.8654 N    0  0  0  0  0  0  0  0  0  0  0  0
   10.2130   15.8762   19.7167 C    0  0  0  0  0  0  0  0  0  0  0  0
    9.8359   16.9575   19.2977 O    0  0  0  0  0  0  0  0  0  0  0  0
   10.1216   15.4452   21.1841 C    0  0  0  0  0  0  0  0  0  0  0  0
   11.0874   16.2550   22.0973 C    0  0  0  0  0  0  0  0  0  0  0  0
   10.9561   15.8060   23.5810 C    0  0  0  0  0  0  0  0  0  0  0  0
    9.4729   15.7042   24.0655 C    0  0  0  0  0  0  0  0  0  0  0  0
    8.5666   14.9502   23.1307 N    0  0  0  0  0  0  0  0  0  0  0  0
    7.8137   13.8435   23.4558 C    0  0  0  0  0  0  0  0  0  0  0  0
    7.1572   13.2487   22.6111 O    0  0  0  0  0  0  0  0  0  0  0  0
    7.8983   13.3627   24.7362 O    0  0  0  0  0  0  0  0  0  0  0  0
    7.5534   12.0461   25.0363 C    0  0  0  0  0  0  0  0  0  0  0  0
    8.3027   11.0116   24.4358 C    0  0  0  0  0  0  0  0  0  0  0  0
    7.9138    9.6787   24.5876 C    0  0  0  0  0  0  0  0  0  0  0  0
    6.7990    9.3697   25.3717 C    0  0  0  0  0  0  0  0  0  0  0  0
    6.0783   10.3792   26.0159 C    0  0  0  0  0  0  0  0  0  0  0  0
    6.4421   11.7320   25.8553 C    0  0  0  0  0  0  0  0  0  0  0  0
    5.6901   12.7182   26.4647 N    0  0  0  0  0  0  0  0  0  0  0  0
    5.4596   12.6749   27.9372 C    0  0  0  0  0  0  0  0  0  0  0  0
    5.1351   14.0751   28.5338 C    0  0  0  0  0  0  0  0  0  0  0  0
    4.0641   14.8448   27.7128 C    0  0  0  0  0  0  0  0  0  0  0  0
    4.4263   14.8730   26.2018 C    0  0  0  0  0  0  0  0  0  0  0  0
    4.6853   13.4472   25.6479 C    0  0  0  0  0  0  0  0  0  0  0  0
    8.6652   15.5027   21.7414 C    0  0  0  0  0  0  0  0  0  0  0  0
   10.7510   13.9564   19.2057 H    0  0  0  0  0  0  0  0  0  0  0  0
   10.5942   15.0638   17.8683 H    0  0  0  0  0  0  0  0  0  0  0  0
   10.4315   14.3959   21.2639 H    0  0  0  0  0  0  0  0  0  0  0  0
   10.8741   17.3240   22.0118 H    0  0  0  0  0  0  0  0  0  0  0  0
   12.1138   16.1062   21.7547 H    0  0  0  0  0  0  0  0  0  0  0  0
   11.4923   16.5201   24.2143 H    0  0  0  0  0  0  0  0  0  0  0  0
   11.4548   14.8396   23.7128 H    0  0  0  0  0  0  0  0  0  0  0  0
    9.0664   16.7118   24.2035 H    0  0  0  0  0  0  0  0  0  0  0  0
    9.4852   15.2664   25.0648 H    0  0  0  0  0  0  0  0  0  0  0  0
    9.1690   11.2458   23.8240 H    0  0  0  0  0  0  0  0  0  0  0  0
    8.4787    8.8881   24.1000 H    0  0  0  0  0  0  0  0  0  0  0  0
    6.4899    8.3333   25.4884 H    0  0  0  0  0  0  0  0  0  0  0  0
    5.2183   10.1012   26.6213 H    0  0  0  0  0  0  0  0  0  0  0  0
    6.3440   12.2894   28.4553 H    0  0  0  0  0  0  0  0  0  0  0  0
    4.6404   11.9911   28.1827 H    0  0  0  0  0  0  0  0  0  0  0  0
    6.0532   14.6687   28.5739 H    0  0  0  0  0  0  0  0  0  0  0  0
    4.7892   13.9574   29.5650 H    0  0  0  0  0  0  0  0  0  0  0  0
    3.9783   15.8674   28.0891 H    0  0  0  0  0  0  0  0  0  0  0  0
    3.0850   14.3742   27.8522 H    0  0  0  0  0  0  0  0  0  0  0  0
    5.3152   15.4914   26.0422 H    0  0  0  0  0  0  0  0  0  0  0  0
    3.6123   15.3388   25.6403 H    0  0  0  0  0  0  0  0  0  0  0  0
    5.0016   13.5465   24.6057 H    0  0  0  0  0  0  0  0  0  0  0  0
    3.7446   12.8924   25.6158 H    0  0  0  0  0  0  0  0  0  0  0  0
    8.3059   16.5340   21.7437 H    0  0  0  0  0  0  0  0  0  0  0  0
    8.0103   14.9921   21.0324 H    0  0  0  0  0  0  0  0  0  0  0  0
  9 11  1  0  0  0  0
  8  9  1  0  0  0  0
  7  8  1  0  0  0  0
  6  7  1  0  0  0  0
  5  6  1  0  0  0  0
  4  5  1  0  0  0  0
  2  4  1  0  0  0  0
  1  2  1  0  0  0  0
 25  1  1  0  0  0  0
 26  1  1  0  0  0  0
  3  2  2  0  0  0  0
 27  4  1  0  0  0  0
 28  5  1  0  0  0  0
 29  5  1  0  0  0  0
 30  6  1  0  0  0  0
 31  6  1  0  0  0  0
 32  7  1  0  0  0  0
 33  7  1  0  0  0  0
 24  8  1  0  0  0  0
 10  9  2  0  0  0  0
 12 11  1  0  0  0  0
 13 12  2  0  0  0  0
 14 13  1  0  0  0  0
 34 13  1  0  0  0  0
 15 14  2  0  0  0  0
 35 14  1  0  0  0  0
 16 15  1  0  0  0  0
 36 15  1  0  0  0  0
 17 16  2  0  0  0  0
 37 16  1  0  0  0  0
 18 17  1  0  0  0  0
 19 18  1  0  0  0  0
 20 19  1  0  0  0  0
 38 19  1  0  0  0  0
 39 19  1  0  0  0  0
 21 20  1  0  0  0  0
 40 20  1  0  0  0  0
 41 20  1  0  0  0  0
 22 21  1  0  0  0  0
 42 21  1  0  0  0  0
 43 21  1  0  0  0  0
 23 22  1  0  0  0  0
 44 22  1  0  0  0  0
 45 22  1  0  0  0  0
 46 23  1  0  0  0  0
 47 23  1  0  0  0  0
 48 24  1  0  0  0  0
 49 24  1  0  0  0  0
 17 12  1  0  0  0  0
 23 18  1  0  0  0  0
 24  4  1  0  0  0  0
M  END
>  <FittedScore>
-37.29

$$$$
