A71EV2A-x5409b_lowest-energy
  FITTED

 36 37     0  0  0  0  0  0  0999 V2000
   11.2781   14.9582   18.6615 N    0  0  0  0  0  0  0  0  0  0  0  0
   10.6236   15.4428   19.7294 C    0  0  0  0  0  0  0  0  0  0  0  0
    9.5613   16.0174   19.5842 O    0  0  0  0  0  0  0  0  0  0  0  0
   11.3559   15.3212   21.0684 C    0  0  0  0  0  0  0  0  0  0  0  0
   10.4552   15.3685   22.3473 C    0  0  0  0  0  0  0  0  0  0  0  0
   11.3326   15.3598   23.6459 C    0  0  0  0  0  0  0  0  0  0  0  0
   10.5023   15.1229   24.9478 C    0  0  0  0  0  0  0  0  0  0  0  0
    9.6057   13.9242   24.8463 N    0  0  0  0  0  0  0  0  0  0  0  0
   10.0548   12.6720   25.2123 C    0  0  0  0  0  0  0  0  0  0  0  0
   11.2406   12.4891   25.3808 O    0  0  0  0  0  0  0  0  0  0  0  0
    9.1359   11.4823   25.0495 C    0  0  0  0  0  0  0  0  0  0  0  0
    7.7595   11.5489   25.3519 C    0  0  0  0  0  0  0  0  0  0  0  0
    6.9382   10.4298   25.1716 C    0  0  0  0  0  0  0  0  0  0  0  0
    7.4799    9.2429   24.6622 C    0  0  0  0  0  0  0  0  0  0  0  0
    8.8505    9.1550   24.3873 C    0  0  0  0  0  0  0  0  0  0  0  0
    9.4073    8.0087   23.9560 F    0  0  0  0  0  0  0  0  0  0  0  0
    9.6795   10.2558   24.6133 C    0  0  0  0  0  0  0  0  0  0  0  0
    8.6302   14.1578   23.7262 C    0  0  0  0  0  0  0  0  0  0  0  0
    9.3706   14.2503   22.3664 C    0  0  0  0  0  0  0  0  0  0  0  0
   10.9148   15.1095   17.7238 H    0  0  0  0  0  0  0  0  0  0  0  0
   12.1910   14.5235   18.7686 H    0  0  0  0  0  0  0  0  0  0  0  0
   12.0823   16.1339   21.1181 H    0  0  0  0  0  0  0  0  0  0  0  0
   11.9430   14.3965   21.0841 H    0  0  0  0  0  0  0  0  0  0  0  0
    9.9209   16.3237   22.3351 H    0  0  0  0  0  0  0  0  0  0  0  0
   11.8453   16.3191   23.7323 H    0  0  0  0  0  0  0  0  0  0  0  0
   12.1188   14.6037   23.5744 H    0  0  0  0  0  0  0  0  0  0  0  0
    9.9072   16.0168   25.1569 H    0  0  0  0  0  0  0  0  0  0  0  0
   11.1814   15.0394   25.8039 H    0  0  0  0  0  0  0  0  0  0  0  0
    7.3246   12.4697   25.7365 H    0  0  0  0  0  0  0  0  0  0  0  0
    5.8826   10.4893   25.4217 H    0  0  0  0  0  0  0  0  0  0  0  0
    6.8332    8.3829   24.5024 H    0  0  0  0  0  0  0  0  0  0  0  0
   10.7434   10.1510   24.4150 H    0  0  0  0  0  0  0  0  0  0  0  0
    8.0523   15.0706   23.9106 H    0  0  0  0  0  0  0  0  0  0  0  0
    7.8812   13.3820   23.6199 H    0  0  0  0  0  0  0  0  0  0  0  0
    8.6314   14.4380   21.5855 H    0  0  0  0  0  0  0  0  0  0  0  0
    9.8314   13.2834   22.1441 H    0  0  0  0  0  0  0  0  0  0  0  0
  8 18  1  0  0  0  0
  7  8  1  0  0  0  0
  6  7  1  0  0  0  0
  5  6  1  0  0  0  0
  4  5  1  0  0  0  0
  2  4  1  0  0  0  0
  1  2  1  0  0  0  0
 20  1  1  0  0  0  0
 21  1  1  0  0  0  0
  3  2  2  0  0  0  0
 22  4  1  0  0  0  0
 23  4  1  0  0  0  0
 24  5  1  0  0  0  0
 25  6  1  0  0  0  0
 26  6  1  0  0  0  0
 27  7  1  0  0  0  0
 28  7  1  0  0  0  0
  9  8  1  0  0  0  0
 10  9  2  0  0  0  0
 11  9  1  0  0  0  0
 12 11  2  0  0  0  0
 13 12  1  0  0  0  0
 29 12  1  0  0  0  0
 14 13  2  0  0  0  0
 30 13  1  0  0  0  0
 15 14  1  0  0  0  0
 31 14  1  0  0  0  0
 16 15  1  0  0  0  0
 17 15  2  0  0  0  0
 32 17  1  0  0  0  0
 19 18  1  0  0  0  0
 33 18  1  0  0  0  0
 34 18  1  0  0  0  0
 35 19  1  0  0  0  0
 36 19  1  0  0  0  0
 17 11  1  0  0  0  0
 19  5  1  0  0  0  0
M  END
>  <FittedScore>
-34.59

$$$$
