A71EV2A-x4312a_best-RMSD
  FITTED

 35 37     0  0  0  0  0  0  0999 V2000
   11.5511   15.7683   24.2137 O    0  0  0  0  0  0  0  0  0  0  0  0
   10.9843   15.4309   23.2020 C    0  0  0  0  0  0  0  0  0  0  0  0
   11.4839   15.7347   21.8126 C    0  0  0  0  0  0  0  0  0  0  0  0
    9.7723   14.8365   23.1468 N    0  0  0  0  0  0  0  0  0  0  0  0
    9.2501   14.7318   21.7818 C    0  0  0  0  0  0  0  0  0  0  0  0
   10.5334   14.9063   20.9326 C    0  0  0  0  0  0  0  0  0  0  0  0
   10.3476   15.4504   19.5259 C    0  0  0  0  0  0  0  0  0  0  0  0
    9.4519   16.2023   19.1956 O    0  0  0  0  0  0  0  0  0  0  0  0
   11.2696   15.0470   18.6317 N    0  0  0  0  0  0  0  0  0  0  0  0
    8.9203   14.3839   24.2790 C    0  0  0  0  0  0  0  0  0  0  0  0
    8.7273   12.8622   24.4213 C    0  0  0  0  0  0  0  0  0  0  0  0
    7.7009   12.3643   25.2524 C    0  0  0  0  0  0  0  0  0  0  0  0
    6.8366   13.0916   26.0368 O    0  0  0  0  0  0  0  0  0  0  0  0
    5.8667   12.2129   26.6897 C    0  0  0  0  0  0  0  0  0  0  0  0
    6.3114   10.7772   26.3200 C    0  0  0  0  0  0  0  0  0  0  0  0
    7.4502   11.0106   25.3704 C    0  0  0  0  0  0  0  0  0  0  0  0
    8.2137   10.0718   24.6706 C    0  0  0  0  0  0  0  0  0  0  0  0
    9.2735   10.5272   23.8708 C    0  0  0  0  0  0  0  0  0  0  0  0
    9.5363   11.9058   23.7567 C    0  0  0  0  0  0  0  0  0  0  0  0
   11.4202   16.8090   21.5966 H    0  0  0  0  0  0  0  0  0  0  0  0
   12.5238   15.4184   21.6861 H    0  0  0  0  0  0  0  0  0  0  0  0
    8.5193   15.5269   21.6147 H    0  0  0  0  0  0  0  0  0  0  0  0
    8.7703   13.7709   21.5805 H    0  0  0  0  0  0  0  0  0  0  0  0
   10.9716   13.9014   20.8537 H    0  0  0  0  0  0  0  0  0  0  0  0
   11.1066   15.2202   17.6519 H    0  0  0  0  0  0  0  0  0  0  0  0
   12.0447   14.4537   18.9034 H    0  0  0  0  0  0  0  0  0  0  0  0
    7.9427   14.8624   24.1702 H    0  0  0  0  0  0  0  0  0  0  0  0
    9.3223   14.7633   25.2216 H    0  0  0  0  0  0  0  0  0  0  0  0
    4.8669   12.4305   26.3047 H    0  0  0  0  0  0  0  0  0  0  0  0
    5.8792   12.3790   27.7702 H    0  0  0  0  0  0  0  0  0  0  0  0
    5.5032   10.2243   25.8346 H    0  0  0  0  0  0  0  0  0  0  0  0
    6.6423   10.2243   27.2030 H    0  0  0  0  0  0  0  0  0  0  0  0
    8.0063    9.0090   24.7620 H    0  0  0  0  0  0  0  0  0  0  0  0
    9.8963    9.8053   23.3476 H    0  0  0  0  0  0  0  0  0  0  0  0
   10.3732   12.2143   23.1349 H    0  0  0  0  0  0  0  0  0  0  0  0
 10 11  1  0  0  0  0
  4 10  1  0  0  0  0
  2  4  1  0  0  0  0
  1  2  2  0  0  0  0
  3  2  1  0  0  0  0
 20  3  1  0  0  0  0
 21  3  1  0  0  0  0
  5  4  1  0  0  0  0
 22  5  1  0  0  0  0
 23  5  1  0  0  0  0
  6  3  1  0  0  0  0
  7  6  1  0  0  0  0
 24  6  1  0  0  0  0
  8  7  2  0  0  0  0
  9  7  1  0  0  0  0
 25  9  1  0  0  0  0
 26  9  1  0  0  0  0
 27 10  1  0  0  0  0
 28 10  1  0  0  0  0
 19 11  2  0  0  0  0
 12 11  1  0  0  0  0
 13 12  1  0  0  0  0
 14 13  1  0  0  0  0
 29 14  1  0  0  0  0
 30 14  1  0  0  0  0
 15 14  1  0  0  0  0
 31 15  1  0  0  0  0
 32 15  1  0  0  0  0
 16 12  2  0  0  0  0
 17 16  1  0  0  0  0
 33 17  1  0  0  0  0
 18 17  2  0  0  0  0
 34 18  1  0  0  0  0
 35 19  1  0  0  0  0
  6  5  1  0  0  0  0
 16 15  1  0  0  0  0
 19 18  1  0  0  0  0
M  END
>  <FittedScore>
-32.13

$$$$
