A71EV2A-x7317b_best-RMSD
  FITTED

 51 54     0  0  0  0  0  0  0999 V2000
    9.5055    8.6685   23.3859 C    0  0  0  0  0  0  0  0  0  0  0  0
    9.4887   10.3597   24.0520 S    0  0  0  0  0  0  0  0  0  0  0  0
    7.9878   10.5257   25.0121 C    0  0  0  0  0  0  0  0  0  0  0  0
    7.3234    9.3799   25.3315 N    0  0  0  0  0  0  0  0  0  0  0  0
    6.1760    9.4830   26.0489 C    0  0  0  0  0  0  0  0  0  0  0  0
    5.6190   10.6524   26.4421 N    0  0  0  0  0  0  0  0  0  0  0  0
    6.2548   11.8207   26.1228 C    0  0  0  0  0  0  0  0  0  0  0  0
    5.5996   12.9957   26.4787 N    0  0  0  0  0  0  0  0  0  0  0  0
    5.0456   13.8845   25.4292 C    0  0  0  0  0  0  0  0  0  0  0  0
    3.6693   14.2635   25.9357 C    0  0  0  0  0  0  0  0  0  0  0  0
    2.6294   13.2525   26.3312 C    0  0  0  0  0  0  0  0  0  0  0  0
    3.5621   13.8400   27.3571 C    0  0  0  0  0  0  0  0  0  0  0  0
    4.8712   13.1853   27.7651 C    0  0  0  0  0  0  0  0  0  0  0  0
    7.4981   11.8019   25.4161 C    0  0  0  0  0  0  0  0  0  0  0  0
    8.2981   13.0922   25.0940 C    0  0  0  0  0  0  0  0  0  0  0  0
    8.1833   13.5884   23.6382 C    0  0  0  0  0  0  0  0  0  0  0  0
    7.3828   13.0556   22.8874 O    0  0  0  0  0  0  0  0  0  0  0  0
    8.9827   14.6327   23.1977 N    0  0  0  0  0  0  0  0  0  0  0  0
    9.8453   15.5264   24.0515 C    0  0  0  0  0  0  0  0  0  0  0  0
   11.3069   15.6787   23.5405 C    0  0  0  0  0  0  0  0  0  0  0  0
   11.3681   16.1072   22.0497 C    0  0  0  0  0  0  0  0  0  0  0  0
   10.4465   15.2060   21.1760 C    0  0  0  0  0  0  0  0  0  0  0  0
   10.4222   15.6704   19.7195 C    0  0  0  0  0  0  0  0  0  0  0  0
   10.8851   14.7844   18.8158 N    0  0  0  0  0  0  0  0  0  0  0  0
    9.9270   16.7207   19.3512 O    0  0  0  0  0  0  0  0  0  0  0  0
    9.0059   15.1072   21.7697 C    0  0  0  0  0  0  0  0  0  0  0  0
    8.6106    8.4965   22.7865 H    0  0  0  0  0  0  0  0  0  0  0  0
    9.5435    7.9525   24.2069 H    0  0  0  0  0  0  0  0  0  0  0  0
   10.3886    8.5280   22.7583 H    0  0  0  0  0  0  0  0  0  0  0  0
    5.6599    8.5629   26.3148 H    0  0  0  0  0  0  0  0  0  0  0  0
    4.9815   13.4001   24.4492 H    0  0  0  0  0  0  0  0  0  0  0  0
    5.6701   14.7735   25.3040 H    0  0  0  0  0  0  0  0  0  0  0  0
    3.3229   15.2540   25.6506 H    0  0  0  0  0  0  0  0  0  0  0  0
    2.7668   12.2143   26.0365 H    0  0  0  0  0  0  0  0  0  0  0  0
    1.5932   13.5777   26.3380 H    0  0  0  0  0  0  0  0  0  0  0  0
    3.1384   14.5261   28.0862 H    0  0  0  0  0  0  0  0  0  0  0  0
    4.6832   12.2739   28.3393 H    0  0  0  0  0  0  0  0  0  0  0  0
    5.4415   13.8478   28.4206 H    0  0  0  0  0  0  0  0  0  0  0  0
    9.3484   12.9140   25.3397 H    0  0  0  0  0  0  0  0  0  0  0  0
    8.0070   13.8995   25.7697 H    0  0  0  0  0  0  0  0  0  0  0  0
    9.9019   15.2001   25.0904 H    0  0  0  0  0  0  0  0  0  0  0  0
    9.3838   16.5176   24.0974 H    0  0  0  0  0  0  0  0  0  0  0  0
   11.8437   14.7320   23.6735 H    0  0  0  0  0  0  0  0  0  0  0  0
   11.8269   16.4232   24.1471 H    0  0  0  0  0  0  0  0  0  0  0  0
   12.4005   16.0260   21.6968 H    0  0  0  0  0  0  0  0  0  0  0  0
   11.0789   17.1593   21.9535 H    0  0  0  0  0  0  0  0  0  0  0  0
   10.8657   14.1927   21.2254 H    0  0  0  0  0  0  0  0  0  0  0  0
   11.1451   13.8404   19.1033 H    0  0  0  0  0  0  0  0  0  0  0  0
   10.8596   15.0218   17.8305 H    0  0  0  0  0  0  0  0  0  0  0  0
    8.4302   14.4566   21.1052 H    0  0  0  0  0  0  0  0  0  0  0  0
    8.5163   16.0856   21.7156 H    0  0  0  0  0  0  0  0  0  0  0  0
 15 16  1  0  0  0  0
 14 15  1  0  0  0  0
  7 14  2  0  0  0  0
  6  7  1  0  0  0  0
  5  6  2  0  0  0  0
  4  5  1  0  0  0  0
  3  4  2  0  0  0  0
  2  3  1  0  0  0  0
  1  2  1  0  0  0  0
 27  1  1  0  0  0  0
 28  1  1  0  0  0  0
 29  1  1  0  0  0  0
 30  5  1  0  0  0  0
  8  7  1  0  0  0  0
  9  8  1  0  0  0  0
 31  9  1  0  0  0  0
 32  9  1  0  0  0  0
 10  9  1  0  0  0  0
 11 10  1  0  0  0  0
 33 10  1  0  0  0  0
 34 11  1  0  0  0  0
 35 11  1  0  0  0  0
 12 11  1  0  0  0  0
 13 12  1  0  0  0  0
 36 12  1  0  0  0  0
 37 13  1  0  0  0  0
 38 13  1  0  0  0  0
 39 15  1  0  0  0  0
 40 15  1  0  0  0  0
 17 16  2  0  0  0  0
 18 16  1  0  0  0  0
 19 18  1  0  0  0  0
 20 19  1  0  0  0  0
 41 19  1  0  0  0  0
 42 19  1  0  0  0  0
 21 20  1  0  0  0  0
 43 20  1  0  0  0  0
 44 20  1  0  0  0  0
 22 21  1  0  0  0  0
 45 21  1  0  0  0  0
 46 21  1  0  0  0  0
 23 22  1  0  0  0  0
 26 22  1  0  0  0  0
 47 22  1  0  0  0  0
 24 23  1  0  0  0  0
 25 23  2  0  0  0  0
 48 24  1  0  0  0  0
 49 24  1  0  0  0  0
 50 26  1  0  0  0  0
 51 26  1  0  0  0  0
 12 10  1  0  0  0  0
 13  8  1  0  0  0  0
 14  3  1  0  0  0  0
 26 18  1  0  0  0  0
M  END
>  <FittedScore>
-35.11

$$$$
