A71EV2A-x7317b_lowest-energy
  FITTED

 51 54     0  0  0  0  0  0  0999 V2000
    9.5708    8.6968   23.4260 C    0  0  0  0  0  0  0  0  0  0  0  0
    9.4511   10.4173   24.0260 S    0  0  0  0  0  0  0  0  0  0  0  0
    7.9541   10.5465   24.9950 C    0  0  0  0  0  0  0  0  0  0  0  0
    7.3057    9.3892   25.3074 N    0  0  0  0  0  0  0  0  0  0  0  0
    6.1711    9.4684   26.0489 C    0  0  0  0  0  0  0  0  0  0  0  0
    5.6000   10.6234   26.4707 N    0  0  0  0  0  0  0  0  0  0  0  0
    6.2188   11.7978   26.1527 C    0  0  0  0  0  0  0  0  0  0  0  0
    5.5668   12.9591   26.5262 N    0  0  0  0  0  0  0  0  0  0  0  0
    5.0328   13.8605   25.4814 C    0  0  0  0  0  0  0  0  0  0  0  0
    3.6436   14.2240   25.9636 C    0  0  0  0  0  0  0  0  0  0  0  0
    2.5870   13.2075   26.3061 C    0  0  0  0  0  0  0  0  0  0  0  0
    3.5026   13.7563   27.3686 C    0  0  0  0  0  0  0  0  0  0  0  0
    4.7955   13.0786   27.7886 C    0  0  0  0  0  0  0  0  0  0  0  0
    7.4489   11.8085   25.4255 C    0  0  0  0  0  0  0  0  0  0  0  0
    8.2163   13.1191   25.1202 C    0  0  0  0  0  0  0  0  0  0  0  0
    8.1430   13.5898   23.6568 C    0  0  0  0  0  0  0  0  0  0  0  0
    7.3406   13.0593   22.9078 O    0  0  0  0  0  0  0  0  0  0  0  0
    8.9784   14.5975   23.2106 N    0  0  0  0  0  0  0  0  0  0  0  0
    9.8297   15.4952   24.0718 C    0  0  0  0  0  0  0  0  0  0  0  0
   11.2851   15.6936   23.5578 C    0  0  0  0  0  0  0  0  0  0  0  0
   11.3181   16.1649   22.0798 C    0  0  0  0  0  0  0  0  0  0  0  0
   10.4451   15.2229   21.2029 C    0  0  0  0  0  0  0  0  0  0  0  0
   10.4117   15.6887   19.7466 C    0  0  0  0  0  0  0  0  0  0  0  0
   10.8649   14.7984   18.8408 N    0  0  0  0  0  0  0  0  0  0  0  0
    9.9195   16.7399   19.3802 O    0  0  0  0  0  0  0  0  0  0  0  0
    9.0064   15.0609   21.7822 C    0  0  0  0  0  0  0  0  0  0  0  0
    8.6856    8.4493   22.8360 H    0  0  0  0  0  0  0  0  0  0  0  0
    9.6504    8.0172   24.2730 H    0  0  0  0  0  0  0  0  0  0  0  0
   10.4634    8.5884   22.8076 H    0  0  0  0  0  0  0  0  0  0  0  0
    5.6810    8.5352   26.3166 H    0  0  0  0  0  0  0  0  0  0  0  0
    4.9898   13.3848   24.4955 H    0  0  0  0  0  0  0  0  0  0  0  0
    5.6621   14.7475   25.3792 H    0  0  0  0  0  0  0  0  0  0  0  0
    3.3095   15.2234   25.6946 H    0  0  0  0  0  0  0  0  0  0  0  0
    2.7186   12.1787   25.9791 H    0  0  0  0  0  0  0  0  0  0  0  0
    1.5517   13.5381   26.3157 H    0  0  0  0  0  0  0  0  0  0  0  0
    3.0755   14.4336   28.1044 H    0  0  0  0  0  0  0  0  0  0  0  0
    4.5991   12.1275   28.2900 H    0  0  0  0  0  0  0  0  0  0  0  0
    5.3462   13.7017   28.4967 H    0  0  0  0  0  0  0  0  0  0  0  0
    9.2533   12.9551   25.4238 H    0  0  0  0  0  0  0  0  0  0  0  0
    7.8777   13.9383   25.7610 H    0  0  0  0  0  0  0  0  0  0  0  0
    9.9045   15.1572   25.1051 H    0  0  0  0  0  0  0  0  0  0  0  0
    9.3384   16.4732   24.1292 H    0  0  0  0  0  0  0  0  0  0  0  0
   11.8438   14.7570   23.6534 H    0  0  0  0  0  0  0  0  0  0  0  0
   11.7951   16.4286   24.1856 H    0  0  0  0  0  0  0  0  0  0  0  0
   12.3491   16.1529   21.7191 H    0  0  0  0  0  0  0  0  0  0  0  0
   10.9702   17.2016   22.0138 H    0  0  0  0  0  0  0  0  0  0  0  0
   10.9111   14.2285   21.2592 H    0  0  0  0  0  0  0  0  0  0  0  0
   11.1300   13.8618   19.1434 H    0  0  0  0  0  0  0  0  0  0  0  0
   10.7698   14.9834   17.8463 H    0  0  0  0  0  0  0  0  0  0  0  0
    8.4782   14.3734   21.1162 H    0  0  0  0  0  0  0  0  0  0  0  0
    8.4569   16.0054   21.7175 H    0  0  0  0  0  0  0  0  0  0  0  0
 15 16  1  0  0  0  0
 14 15  1  0  0  0  0
  7 14  2  0  0  0  0
  6  7  1  0  0  0  0
  5  6  2  0  0  0  0
  4  5  1  0  0  0  0
  3  4  2  0  0  0  0
  2  3  1  0  0  0  0
  1  2  1  0  0  0  0
 27  1  1  0  0  0  0
 28  1  1  0  0  0  0
 29  1  1  0  0  0  0
 30  5  1  0  0  0  0
  8  7  1  0  0  0  0
  9  8  1  0  0  0  0
 31  9  1  0  0  0  0
 32  9  1  0  0  0  0
 10  9  1  0  0  0  0
 11 10  1  0  0  0  0
 33 10  1  0  0  0  0
 34 11  1  0  0  0  0
 35 11  1  0  0  0  0
 12 11  1  0  0  0  0
 13 12  1  0  0  0  0
 36 12  1  0  0  0  0
 37 13  1  0  0  0  0
 38 13  1  0  0  0  0
 39 15  1  0  0  0  0
 40 15  1  0  0  0  0
 17 16  2  0  0  0  0
 18 16  1  0  0  0  0
 19 18  1  0  0  0  0
 20 19  1  0  0  0  0
 41 19  1  0  0  0  0
 42 19  1  0  0  0  0
 21 20  1  0  0  0  0
 43 20  1  0  0  0  0
 44 20  1  0  0  0  0
 22 21  1  0  0  0  0
 45 21  1  0  0  0  0
 46 21  1  0  0  0  0
 23 22  1  0  0  0  0
 26 22  1  0  0  0  0
 47 22  1  0  0  0  0
 24 23  1  0  0  0  0
 25 23  2  0  0  0  0
 48 24  1  0  0  0  0
 49 24  1  0  0  0  0
 50 26  1  0  0  0  0
 51 26  1  0  0  0  0
 12 10  1  0  0  0  0
 13  8  1  0  0  0  0
 14  3  1  0  0  0  0
 26 18  1  0  0  0  0
M  END
>  <FittedScore>
-35.63

$$$$
