A71EV2A-x5544a_lowest-energy
  FITTED

 45 47     0  0  0  0  0  0  0999 V2000
    9.9189   16.8240   19.2196 O    0  0  0  0  0  0  0  0  0  0  0  0
   10.3974   15.7735   19.6016 C    0  0  0  0  0  0  0  0  0  0  0  0
   10.8030   14.8464   18.7129 N    0  0  0  0  0  0  0  0  0  0  0  0
   10.3827   15.3170   21.0536 C    0  0  0  0  0  0  0  0  0  0  0  0
   11.1927   16.2923   21.9526 C    0  0  0  0  0  0  0  0  0  0  0  0
   11.1438   15.8026   23.4169 C    0  0  0  0  0  0  0  0  0  0  0  0
    9.6837   15.5726   23.8892 C    0  0  0  0  0  0  0  0  0  0  0  0
    8.9225   15.1147   21.5764 C    0  0  0  0  0  0  0  0  0  0  0  0
    8.8475   14.6678   23.0043 N    0  0  0  0  0  0  0  0  0  0  0  0
    7.9738   13.6858   23.4414 C    0  0  0  0  0  0  0  0  0  0  0  0
    7.1550   13.1697   22.6945 O    0  0  0  0  0  0  0  0  0  0  0  0
    8.0196   13.2603   24.9213 C    0  0  0  0  0  0  0  0  0  0  0  0
    7.2440   11.9704   25.2669 C    0  0  0  0  0  0  0  0  0  0  0  0
    7.8614   10.7094   24.9974 C    0  0  0  0  0  0  0  0  0  0  0  0
    9.3931   10.5799   24.0744 S    0  0  0  0  0  0  0  0  0  0  0  0
    9.5340    8.8510   23.5115 C    0  0  0  0  0  0  0  0  0  0  0  0
    5.9900   11.9548   25.9709 C    0  0  0  0  0  0  0  0  0  0  0  0
    5.5471   10.7657   26.4870 N    0  0  0  0  0  0  0  0  0  0  0  0
    6.2100    9.6240   26.2149 C    0  0  0  0  0  0  0  0  0  0  0  0
    7.3230    9.5522   25.4565 N    0  0  0  0  0  0  0  0  0  0  0  0
    5.1225   13.0704   26.1505 C    0  0  0  0  0  0  0  0  0  0  0  0
    5.0888   14.2960   25.5065 C    0  0  0  0  0  0  0  0  0  0  0  0
    4.0694   15.0307   26.0151 N    0  0  0  0  0  0  0  0  0  0  0  0
    3.3204   14.4202   26.9708 N    0  0  0  0  0  0  0  0  0  0  0  0
    4.0276   13.1230   27.0109 C    0  0  0  0  0  0  0  0  0  0  0  0
   10.7772   15.0720   17.7221 H    0  0  0  0  0  0  0  0  0  0  0  0
   10.9778   13.8874   19.0212 H    0  0  0  0  0  0  0  0  0  0  0  0
   10.8810   14.3412   21.1258 H    0  0  0  0  0  0  0  0  0  0  0  0
   12.2313   16.3328   21.6123 H    0  0  0  0  0  0  0  0  0  0  0  0
   10.7971   17.3131   21.8849 H    0  0  0  0  0  0  0  0  0  0  0  0
   11.7131   14.8736   23.5117 H    0  0  0  0  0  0  0  0  0  0  0  0
   11.6261   16.5405   24.0617 H    0  0  0  0  0  0  0  0  0  0  0  0
    9.7524   15.2324   24.9184 H    0  0  0  0  0  0  0  0  0  0  0  0
    9.1757   16.5425   23.9512 H    0  0  0  0  0  0  0  0  0  0  0  0
    8.4510   14.3903   20.9051 H    0  0  0  0  0  0  0  0  0  0  0  0
    8.3442   16.0398   21.4601 H    0  0  0  0  0  0  0  0  0  0  0  0
    9.0515   13.1125   25.2380 H    0  0  0  0  0  0  0  0  0  0  0  0
    7.7097   14.0849   25.5638 H    0  0  0  0  0  0  0  0  0  0  0  0
   10.4526    8.7405   22.9357 H    0  0  0  0  0  0  0  0  0  0  0  0
    8.6855    8.5927   22.8851 H    0  0  0  0  0  0  0  0  0  0  0  0
    9.5759    8.1859   24.3797 H    0  0  0  0  0  0  0  0  0  0  0  0
    5.8197    8.7007   26.6341 H    0  0  0  0  0  0  0  0  0  0  0  0
    5.7124   14.6441   24.6951 H    0  0  0  0  0  0  0  0  0  0  0  0
    3.8931   15.9809   25.7019 H    0  0  0  0  0  0  0  0  0  0  0  0
    3.6755   12.3264   27.6652 H    0  0  0  0  0  0  0  0  0  0  0  0
  9 10  1  0  0  0  0
  7  9  1  0  0  0  0
  6  7  1  0  0  0  0
  5  6  1  0  0  0  0
  4  5  1  0  0  0  0
  2  4  1  0  0  0  0
  1  2  2  0  0  0  0
  3  2  1  0  0  0  0
 26  3  1  0  0  0  0
 27  3  1  0  0  0  0
 28  4  1  0  0  0  0
 29  5  1  0  0  0  0
 30  5  1  0  0  0  0
 31  6  1  0  0  0  0
 32  6  1  0  0  0  0
 33  7  1  0  0  0  0
 34  7  1  0  0  0  0
  8  4  1  0  0  0  0
 35  8  1  0  0  0  0
 36  8  1  0  0  0  0
 11 10  2  0  0  0  0
 12 10  1  0  0  0  0
 37 12  1  0  0  0  0
 38 12  1  0  0  0  0
 13 12  1  0  0  0  0
 14 13  1  0  0  0  0
 20 14  2  0  0  0  0
 15 14  1  0  0  0  0
 16 15  1  0  0  0  0
 39 16  1  0  0  0  0
 40 16  1  0  0  0  0
 41 16  1  0  0  0  0
 17 13  2  0  0  0  0
 18 17  1  0  0  0  0
 19 18  2  0  0  0  0
 42 19  1  0  0  0  0
 21 17  1  0  0  0  0
 25 21  1  0  0  0  0
 22 21  2  0  0  0  0
 43 22  1  0  0  0  0
 23 22  1  0  0  0  0
 44 23  1  0  0  0  0
 24 23  1  0  0  0  0
 45 25  1  0  0  0  0
  9  8  1  0  0  0  0
 20 19  1  0  0  0  0
 25 24  2  0  0  0  0
M  END
>  <FittedScore>
-30.32

$$$$
