A71EV2A-x5544a_best-RMSD
  FITTED

 45 47     0  0  0  0  0  0  0999 V2000
    9.8602   16.8152   19.2108 O    0  0  0  0  0  0  0  0  0  0  0  0
   10.3952   15.7854   19.5772 C    0  0  0  0  0  0  0  0  0  0  0  0
   10.7279   14.8214   18.6985 N    0  0  0  0  0  0  0  0  0  0  0  0
   10.4354   15.3458   21.0298 C    0  0  0  0  0  0  0  0  0  0  0  0
   11.3012   16.3191   21.8779 C    0  0  0  0  0  0  0  0  0  0  0  0
   11.3171   15.8253   23.3409 C    0  0  0  0  0  0  0  0  0  0  0  0
    9.8821   15.5814   23.8844 C    0  0  0  0  0  0  0  0  0  0  0  0
    8.9989   15.1741   21.6118 C    0  0  0  0  0  0  0  0  0  0  0  0
    9.0398   14.6699   23.0197 N    0  0  0  0  0  0  0  0  0  0  0  0
    8.2852   13.5972   23.4478 C    0  0  0  0  0  0  0  0  0  0  0  0
    7.4358   13.0877   22.7292 O    0  0  0  0  0  0  0  0  0  0  0  0
    8.4495   13.0977   24.8987 C    0  0  0  0  0  0  0  0  0  0  0  0
    7.5365   11.9102   25.2846 C    0  0  0  0  0  0  0  0  0  0  0  0
    7.9805   10.5871   24.9859 C    0  0  0  0  0  0  0  0  0  0  0  0
    9.4521   10.2784   24.0030 S    0  0  0  0  0  0  0  0  0  0  0  0
    9.4885    8.5118   23.5798 C    0  0  0  0  0  0  0  0  0  0  0  0
    6.3033   12.0622   26.0119 C    0  0  0  0  0  0  0  0  0  0  0  0
    5.7178   10.9377   26.5307 N    0  0  0  0  0  0  0  0  0  0  0  0
    6.2297    9.7130   26.2468 C    0  0  0  0  0  0  0  0  0  0  0  0
    7.3039    9.5024   25.4529 N    0  0  0  0  0  0  0  0  0  0  0  0
    5.5910   13.2852   26.2167 C    0  0  0  0  0  0  0  0  0  0  0  0
    5.6771   14.5111   25.5710 C    0  0  0  0  0  0  0  0  0  0  0  0
    4.7672   15.3620   26.1026 N    0  0  0  0  0  0  0  0  0  0  0  0
    3.9562   14.8329   27.0597 N    0  0  0  0  0  0  0  0  0  0  0  0
    4.5381   13.4737   27.1154 C    0  0  0  0  0  0  0  0  0  0  0  0
   10.7138   15.0492   17.7103 H    0  0  0  0  0  0  0  0  0  0  0  0
   10.8985   13.8612   19.0125 H    0  0  0  0  0  0  0  0  0  0  0  0
   10.9160   14.3569   21.0765 H    0  0  0  0  0  0  0  0  0  0  0  0
   12.3192   16.3484   21.4802 H    0  0  0  0  0  0  0  0  0  0  0  0
   10.9116   17.3413   21.8234 H    0  0  0  0  0  0  0  0  0  0  0  0
   11.8964   14.8992   23.4060 H    0  0  0  0  0  0  0  0  0  0  0  0
   11.8278   16.5594   23.9640 H    0  0  0  0  0  0  0  0  0  0  0  0
   10.0030   15.2229   24.9035 H    0  0  0  0  0  0  0  0  0  0  0  0
    9.3726   16.5447   23.9859 H    0  0  0  0  0  0  0  0  0  0  0  0
    8.4538   14.5033   20.9372 H    0  0  0  0  0  0  0  0  0  0  0  0
    8.4518   16.1244   21.5770 H    0  0  0  0  0  0  0  0  0  0  0  0
    9.4941   12.8366   25.0704 H    0  0  0  0  0  0  0  0  0  0  0  0
    8.2875   13.8944   25.6210 H    0  0  0  0  0  0  0  0  0  0  0  0
   10.3905    8.2874   23.0099 H    0  0  0  0  0  0  0  0  0  0  0  0
    8.6154    8.2493   22.9775 H    0  0  0  0  0  0  0  0  0  0  0  0
    9.4976    7.9211   24.4983 H    0  0  0  0  0  0  0  0  0  0  0  0
    5.7363    8.8435   26.6702 H    0  0  0  0  0  0  0  0  0  0  0  0
    6.3073   14.7933   24.7417 H    0  0  0  0  0  0  0  0  0  0  0  0
    4.6513   16.3086   25.7446 H    0  0  0  0  0  0  0  0  0  0  0  0
    4.1306   12.7358   27.8060 H    0  0  0  0  0  0  0  0  0  0  0  0
  9 10  1  0  0  0  0
  7  9  1  0  0  0  0
  6  7  1  0  0  0  0
  5  6  1  0  0  0  0
  4  5  1  0  0  0  0
  2  4  1  0  0  0  0
  1  2  2  0  0  0  0
  3  2  1  0  0  0  0
 26  3  1  0  0  0  0
 27  3  1  0  0  0  0
 28  4  1  0  0  0  0
 29  5  1  0  0  0  0
 30  5  1  0  0  0  0
 31  6  1  0  0  0  0
 32  6  1  0  0  0  0
 33  7  1  0  0  0  0
 34  7  1  0  0  0  0
  8  4  1  0  0  0  0
 35  8  1  0  0  0  0
 36  8  1  0  0  0  0
 11 10  2  0  0  0  0
 12 10  1  0  0  0  0
 37 12  1  0  0  0  0
 38 12  1  0  0  0  0
 13 12  1  0  0  0  0
 14 13  1  0  0  0  0
 20 14  2  0  0  0  0
 15 14  1  0  0  0  0
 16 15  1  0  0  0  0
 39 16  1  0  0  0  0
 40 16  1  0  0  0  0
 41 16  1  0  0  0  0
 17 13  2  0  0  0  0
 18 17  1  0  0  0  0
 19 18  2  0  0  0  0
 42 19  1  0  0  0  0
 21 17  1  0  0  0  0
 25 21  1  0  0  0  0
 22 21  2  0  0  0  0
 43 22  1  0  0  0  0
 23 22  1  0  0  0  0
 44 23  1  0  0  0  0
 24 23  1  0  0  0  0
 45 25  1  0  0  0  0
  9  8  1  0  0  0  0
 20 19  1  0  0  0  0
 25 24  2  0  0  0  0
M  END
>  <FittedScore>
-30.37

$$$$
