A71EV2A-x4753a_lowest-energy
  FITTED

 40 41     0  0  0  0  0  0  0999 V2000
    9.5538   16.5895   19.1027 O    0  0  0  0  0  0  0  0  0  0  0  0
   10.2965   15.7169   19.5246 C    0  0  0  0  0  0  0  0  0  0  0  0
   11.2495   15.2568   18.7055 N    0  0  0  0  0  0  0  0  0  0  0  0
   10.2935   15.1730   20.9665 C    0  0  0  0  0  0  0  0  0  0  0  0
   10.7169   13.8728   20.9785 F    0  0  0  0  0  0  0  0  0  0  0  0
   11.2746   16.0254   21.8349 C    0  0  0  0  0  0  0  0  0  0  0  0
   11.1834   15.6635   23.3390 C    0  0  0  0  0  0  0  0  0  0  0  0
    9.7211   15.6530   23.8480 C    0  0  0  0  0  0  0  0  0  0  0  0
    8.8516   15.1973   21.5819 C    0  0  0  0  0  0  0  0  0  0  0  0
    8.8006   14.7913   23.0257 N    0  0  0  0  0  0  0  0  0  0  0  0
    7.9618   13.8007   23.4996 C    0  0  0  0  0  0  0  0  0  0  0  0
    7.1003   13.2980   22.7938 O    0  0  0  0  0  0  0  0  0  0  0  0
    8.1175   13.3279   24.9484 C    0  0  0  0  0  0  0  0  0  0  0  0
    7.2770   12.0890   25.2849 C    0  0  0  0  0  0  0  0  0  0  0  0
    7.6571   10.7711   24.9122 C    0  0  0  0  0  0  0  0  0  0  0  0
    9.2175   10.4760   24.0764 S    0  0  0  0  0  0  0  0  0  0  0  0
    9.2739    8.7535   23.5041 C    0  0  0  0  0  0  0  0  0  0  0  0
    6.0636   12.3025   25.9650 C    0  0  0  0  0  0  0  0  0  0  0  0
    5.2456   11.2270   26.3167 C    0  0  0  0  0  0  0  0  0  0  0  0
    5.6210    9.9270   25.9647 C    0  0  0  0  0  0  0  0  0  0  0  0
    6.8014    9.7028   25.2466 C    0  0  0  0  0  0  0  0  0  0  0  0
   12.0013   14.6474   19.0298 H    0  0  0  0  0  0  0  0  0  0  0  0
   11.1836   15.4501   17.7152 H    0  0  0  0  0  0  0  0  0  0  0  0
   12.3015   15.8733   21.4927 H    0  0  0  0  0  0  0  0  0  0  0  0
   11.0615   17.0926   21.7064 H    0  0  0  0  0  0  0  0  0  0  0  0
   11.6366   14.6814   23.5061 H    0  0  0  0  0  0  0  0  0  0  0  0
   11.7628   16.3850   23.9178 H    0  0  0  0  0  0  0  0  0  0  0  0
    9.7608   15.3713   24.8983 H    0  0  0  0  0  0  0  0  0  0  0  0
    9.3310   16.6765   23.8493 H    0  0  0  0  0  0  0  0  0  0  0  0
    8.2098   14.5749   20.9512 H    0  0  0  0  0  0  0  0  0  0  0  0
    8.4215   16.2028   21.5108 H    0  0  0  0  0  0  0  0  0  0  0  0
    9.1676   13.1204   25.1697 H    0  0  0  0  0  0  0  0  0  0  0  0
    7.8402   14.1468   25.6186 H    0  0  0  0  0  0  0  0  0  0  0  0
    9.2204    8.0714   24.3544 H    0  0  0  0  0  0  0  0  0  0  0  0
   10.2210    8.5950   22.9855 H    0  0  0  0  0  0  0  0  0  0  0  0
    8.4535    8.5644   22.8094 H    0  0  0  0  0  0  0  0  0  0  0  0
    5.7515   13.3079   26.2406 H    0  0  0  0  0  0  0  0  0  0  0  0
    4.3251   11.4067   26.8616 H    0  0  0  0  0  0  0  0  0  0  0  0
    4.9803    9.0912   26.2323 H    0  0  0  0  0  0  0  0  0  0  0  0
    7.0419    8.6781   24.9902 H    0  0  0  0  0  0  0  0  0  0  0  0
 10 11  1  0  0  0  0
  8 10  1  0  0  0  0
  7  8  1  0  0  0  0
  6  7  1  0  0  0  0
  4  6  1  0  0  0  0
  5  4  1  0  0  0  0
  2  4  1  0  0  0  0
  1  2  2  0  0  0  0
  3  2  1  0  0  0  0
 22  3  1  0  0  0  0
 23  3  1  0  0  0  0
 24  6  1  0  0  0  0
 25  6  1  0  0  0  0
 26  7  1  0  0  0  0
 27  7  1  0  0  0  0
 28  8  1  0  0  0  0
 29  8  1  0  0  0  0
  9  4  1  0  0  0  0
 30  9  1  0  0  0  0
 31  9  1  0  0  0  0
 12 11  2  0  0  0  0
 13 11  1  0  0  0  0
 32 13  1  0  0  0  0
 33 13  1  0  0  0  0
 14 13  1  0  0  0  0
 15 14  1  0  0  0  0
 21 15  2  0  0  0  0
 16 15  1  0  0  0  0
 17 16  1  0  0  0  0
 34 17  1  0  0  0  0
 35 17  1  0  0  0  0
 36 17  1  0  0  0  0
 18 14  2  0  0  0  0
 37 18  1  0  0  0  0
 19 18  1  0  0  0  0
 38 19  1  0  0  0  0
 20 19  2  0  0  0  0
 39 20  1  0  0  0  0
 40 21  1  0  0  0  0
 10  9  1  0  0  0  0
 21 20  1  0  0  0  0
M  END
>  <FittedScore>
-28.97

$$$$
