A71EV2A-x4753a_best-RMSD
  FITTED

 40 41     0  0  0  0  0  0  0999 V2000
    9.6203   16.7191   19.1476 O    0  0  0  0  0  0  0  0  0  0  0  0
   10.3075   15.7926   19.5441 C    0  0  0  0  0  0  0  0  0  0  0  0
   11.2242   15.2711   18.7055 N    0  0  0  0  0  0  0  0  0  0  0  0
   10.2816   15.2490   20.9918 C    0  0  0  0  0  0  0  0  0  0  0  0
   10.6371   13.9359   20.9952 F    0  0  0  0  0  0  0  0  0  0  0  0
   11.3041   16.0365   21.8767 C    0  0  0  0  0  0  0  0  0  0  0  0
   11.1922   15.6673   23.3815 C    0  0  0  0  0  0  0  0  0  0  0  0
    9.7238   15.7394   23.8857 C    0  0  0  0  0  0  0  0  0  0  0  0
    8.8401   15.3450   21.6212 C    0  0  0  0  0  0  0  0  0  0  0  0
    8.7671   14.9181   23.0567 N    0  0  0  0  0  0  0  0  0  0  0  0
    7.9260   13.9247   23.5221 C    0  0  0  0  0  0  0  0  0  0  0  0
    7.0656   13.4279   22.8038 O    0  0  0  0  0  0  0  0  0  0  0  0
    8.1093   13.4145   24.9602 C    0  0  0  0  0  0  0  0  0  0  0  0
    7.2857   12.1587   25.2840 C    0  0  0  0  0  0  0  0  0  0  0  0
    7.6369   10.8632   24.8091 C    0  0  0  0  0  0  0  0  0  0  0  0
    9.1252   10.6291   23.8234 S    0  0  0  0  0  0  0  0  0  0  0  0
    9.2691    8.8655   23.3860 C    0  0  0  0  0  0  0  0  0  0  0  0
    6.1135   12.3239   26.0489 C    0  0  0  0  0  0  0  0  0  0  0  0
    5.3218   11.2262   26.3899 C    0  0  0  0  0  0  0  0  0  0  0  0
    5.6749    9.9528   25.9476 C    0  0  0  0  0  0  0  0  0  0  0  0
    6.7949    9.7775   25.1259 C    0  0  0  0  0  0  0  0  0  0  0  0
   11.8945   14.5617   18.9991 H    0  0  0  0  0  0  0  0  0  0  0  0
   11.1628   15.5026   17.7253 H    0  0  0  0  0  0  0  0  0  0  0  0
   12.3248   15.8347   21.5400 H    0  0  0  0  0  0  0  0  0  0  0  0
   11.1491   17.1163   21.7596 H    0  0  0  0  0  0  0  0  0  0  0  0
   11.5775   14.6535   23.5422 H    0  0  0  0  0  0  0  0  0  0  0  0
   11.8218   16.3379   23.9772 H    0  0  0  0  0  0  0  0  0  0  0  0
    9.7389   15.4681   24.9361 H    0  0  0  0  0  0  0  0  0  0  0  0
    9.3983   16.7809   23.8804 H    0  0  0  0  0  0  0  0  0  0  0  0
    8.1613   14.7806   20.9785 H    0  0  0  0  0  0  0  0  0  0  0  0
    8.4850   16.3826   21.5614 H    0  0  0  0  0  0  0  0  0  0  0  0
    9.1689   13.2102   25.1572 H    0  0  0  0  0  0  0  0  0  0  0  0
    7.8372   14.2302   25.6418 H    0  0  0  0  0  0  0  0  0  0  0  0
   10.1924    8.7241   22.8249 H    0  0  0  0  0  0  0  0  0  0  0  0
    8.4350    8.5633   22.7482 H    0  0  0  0  0  0  0  0  0  0  0  0
    9.3063    8.2494   24.2875 H    0  0  0  0  0  0  0  0  0  0  0  0
    5.8153   13.3086   26.3959 H    0  0  0  0  0  0  0  0  0  0  0  0
    4.4302   11.3701   26.9960 H    0  0  0  0  0  0  0  0  0  0  0  0
    5.0609    9.0923   26.2183 H    0  0  0  0  0  0  0  0  0  0  0  0
    6.9879    8.7732   24.7564 H    0  0  0  0  0  0  0  0  0  0  0  0
 10 11  1  0  0  0  0
  8 10  1  0  0  0  0
  7  8  1  0  0  0  0
  6  7  1  0  0  0  0
  4  6  1  0  0  0  0
  5  4  1  0  0  0  0
  2  4  1  0  0  0  0
  1  2  2  0  0  0  0
  3  2  1  0  0  0  0
 22  3  1  0  0  0  0
 23  3  1  0  0  0  0
 24  6  1  0  0  0  0
 25  6  1  0  0  0  0
 26  7  1  0  0  0  0
 27  7  1  0  0  0  0
 28  8  1  0  0  0  0
 29  8  1  0  0  0  0
  9  4  1  0  0  0  0
 30  9  1  0  0  0  0
 31  9  1  0  0  0  0
 12 11  2  0  0  0  0
 13 11  1  0  0  0  0
 32 13  1  0  0  0  0
 33 13  1  0  0  0  0
 14 13  1  0  0  0  0
 15 14  1  0  0  0  0
 21 15  2  0  0  0  0
 16 15  1  0  0  0  0
 17 16  1  0  0  0  0
 34 17  1  0  0  0  0
 35 17  1  0  0  0  0
 36 17  1  0  0  0  0
 18 14  2  0  0  0  0
 37 18  1  0  0  0  0
 19 18  1  0  0  0  0
 38 19  1  0  0  0  0
 20 19  2  0  0  0  0
 39 20  1  0  0  0  0
 40 21  1  0  0  0  0
 10  9  1  0  0  0  0
 21 20  1  0  0  0  0
M  END
>  <FittedScore>
-28.71

$$$$
