A71EV2A-x4489b_lowest-energy
  FITTED

 37 38     0  0  0  0  0  0  0999 V2000
    7.5439   13.0574   22.9868 O    0  0  0  0  0  0  0  0  0  0  0  0
    8.3942   13.6112   23.6686 C    0  0  0  0  0  0  0  0  0  0  0  0
    9.0710   14.7212   23.2075 N    0  0  0  0  0  0  0  0  0  0  0  0
    9.9898   15.6092   24.0091 C    0  0  0  0  0  0  0  0  0  0  0  0
   11.4240   15.7267   23.4296 C    0  0  0  0  0  0  0  0  0  0  0  0
   11.4086   16.1663   21.9482 C    0  0  0  0  0  0  0  0  0  0  0  0
    9.0073   15.1992   21.7896 C    0  0  0  0  0  0  0  0  0  0  0  0
   10.4258   15.2723   21.1303 C    0  0  0  0  0  0  0  0  0  0  0  0
   10.3477   15.7371   19.6805 C    0  0  0  0  0  0  0  0  0  0  0  0
    9.8671   16.8001   19.3255 O    0  0  0  0  0  0  0  0  0  0  0  0
   10.6776   14.7929   18.7800 N    0  0  0  0  0  0  0  0  0  0  0  0
    8.8084   13.0060   25.0162 C    0  0  0  0  0  0  0  0  0  0  0  0
    8.0016   11.7694   25.4358 C    0  0  0  0  0  0  0  0  0  0  0  0
    8.2456   10.4746   24.9140 C    0  0  0  0  0  0  0  0  0  0  0  0
    9.2596   10.2151   24.0295 N    0  0  0  0  0  0  0  0  0  0  0  0
    7.4866    9.4024   25.2729 N    0  0  0  0  0  0  0  0  0  0  0  0
    6.4781    9.5750   26.1677 C    0  0  0  0  0  0  0  0  0  0  0  0
    6.1787   10.8171   26.7331 C    0  0  0  0  0  0  0  0  0  0  0  0
    6.9415   11.9320   26.3523 C    0  0  0  0  0  0  0  0  0  0  0  0
    9.5419   16.6052   24.0690 H    0  0  0  0  0  0  0  0  0  0  0  0
   10.1070   15.3049   25.0446 H    0  0  0  0  0  0  0  0  0  0  0  0
   11.9975   16.4451   24.0119 H    0  0  0  0  0  0  0  0  0  0  0  0
   11.9284   14.7631   23.5301 H    0  0  0  0  0  0  0  0  0  0  0  0
   11.1139   17.2214   21.8735 H    0  0  0  0  0  0  0  0  0  0  0  0
   12.4195   16.0927   21.5405 H    0  0  0  0  0  0  0  0  0  0  0  0
    8.5504   16.1916   21.7839 H    0  0  0  0  0  0  0  0  0  0  0  0
    8.3655   14.5771   21.1574 H    0  0  0  0  0  0  0  0  0  0  0  0
   10.8412   14.2578   21.1756 H    0  0  0  0  0  0  0  0  0  0  0  0
   10.6195   14.9983   17.7907 H    0  0  0  0  0  0  0  0  0  0  0  0
   10.8444   13.8370   19.0821 H    0  0  0  0  0  0  0  0  0  0  0  0
    8.7066   13.7470   25.8097 H    0  0  0  0  0  0  0  0  0  0  0  0
    9.8710   12.7573   24.9780 H    0  0  0  0  0  0  0  0  0  0  0  0
    9.3486    9.2828   23.6476 H    0  0  0  0  0  0  0  0  0  0  0  0
    9.8765   10.9643   23.7455 H    0  0  0  0  0  0  0  0  0  0  0  0
    5.8941    8.7031   26.4654 H    0  0  0  0  0  0  0  0  0  0  0  0
    5.3761   10.9183   27.4513 H    0  0  0  0  0  0  0  0  0  0  0  0
    6.7127   12.9052   26.7826 H    0  0  0  0  0  0  0  0  0  0  0  0
  2  1  2  0  0  0  0
  3  2  1  0  0  0  0
  4  3  1  0  0  0  0
 20  4  1  0  0  0  0
 21  4  1  0  0  0  0
  5  4  1  0  0  0  0
 22  5  1  0  0  0  0
 23  5  1  0  0  0  0
  6  5  1  0  0  0  0
 24  6  1  0  0  0  0
 25  6  1  0  0  0  0
  7  3  1  0  0  0  0
 26  7  1  0  0  0  0
 27  7  1  0  0  0  0
  8  6  1  0  0  0  0
  9  8  1  0  0  0  0
 28  8  1  0  0  0  0
 10  9  2  0  0  0  0
 11  9  1  0  0  0  0
 29 11  1  0  0  0  0
 30 11  1  0  0  0  0
 12  2  1  0  0  0  0
 31 12  1  0  0  0  0
 32 12  1  0  0  0  0
 13 12  1  0  0  0  0
 19 13  2  0  0  0  0
 14 13  1  0  0  0  0
 15 14  1  0  0  0  0
 33 15  1  0  0  0  0
 34 15  1  0  0  0  0
 16 14  2  0  0  0  0
 17 16  1  0  0  0  0
 35 17  1  0  0  0  0
 18 17  2  0  0  0  0
 36 18  1  0  0  0  0
 37 19  1  0  0  0  0
  8  7  1  0  0  0  0
 19 18  1  0  0  0  0
M  END
>  <FittedScore>
-35.42

$$$$
