A71EV2A-x4684a_best-RMSD
  FITTED

 39 40     0  0  0  0  0  0  0999 V2000
    9.8521   16.6587   19.5254 O    0  0  0  0  0  0  0  0  0  0  0  0
   10.4952   15.6518   19.7568 C    0  0  0  0  0  0  0  0  0  0  0  0
   10.8303   14.8141   18.7523 N    0  0  0  0  0  0  0  0  0  0  0  0
   10.7361   15.1027   21.1622 C    0  0  0  0  0  0  0  0  0  0  0  0
   11.3948   16.0730   22.1491 C    0  0  0  0  0  0  0  0  0  0  0  0
   10.9644   15.5149   23.5191 C    0  0  0  0  0  0  0  0  0  0  0  0
    9.4499   14.6879   21.8911 C    0  0  0  0  0  0  0  0  0  0  0  0
    9.6838   14.7885   23.3515 N    0  0  0  0  0  0  0  0  0  0  0  0
    9.0122   14.1277   24.3673 C    0  0  0  0  0  0  0  0  0  0  0  0
    9.5801   13.8912   25.4185 O    0  0  0  0  0  0  0  0  0  0  0  0
    7.7313   13.6299   24.1718 N    0  0  0  0  0  0  0  0  0  0  0  0
    6.7170   14.2491   23.2680 C    0  0  0  0  0  0  0  0  0  0  0  0
    7.2483   12.4776   24.9113 C    0  0  0  0  0  0  0  0  0  0  0  0
    7.7273   11.1685   24.6469 C    0  0  0  0  0  0  0  0  0  0  0  0
    9.0579   10.9149   23.4689 S    0  0  0  0  0  0  0  0  0  0  0  0
    9.4213    9.1324   23.3663 C    0  0  0  0  0  0  0  0  0  0  0  0
    6.2657   12.6804   25.9031 C    0  0  0  0  0  0  0  0  0  0  0  0
    5.7133   11.5954   26.5861 C    0  0  0  0  0  0  0  0  0  0  0  0
    6.1373   10.2972   26.2903 C    0  0  0  0  0  0  0  0  0  0  0  0
    7.1379   10.0870   25.3323 C    0  0  0  0  0  0  0  0  0  0  0  0
   11.0796   13.8459   18.9591 H    0  0  0  0  0  0  0  0  0  0  0  0
   10.7722   15.1221   17.7877 H    0  0  0  0  0  0  0  0  0  0  0  0
   11.3862   14.2177   21.0997 H    0  0  0  0  0  0  0  0  0  0  0  0
   12.4831   16.0788   22.0330 H    0  0  0  0  0  0  0  0  0  0  0  0
   11.0236   17.0958   22.0193 H    0  0  0  0  0  0  0  0  0  0  0  0
   11.7324   14.8388   23.9089 H    0  0  0  0  0  0  0  0  0  0  0  0
   10.8382   16.3321   24.2360 H    0  0  0  0  0  0  0  0  0  0  0  0
    9.1791   13.6660   21.6080 H    0  0  0  0  0  0  0  0  0  0  0  0
    8.6371   15.3555   21.6059 H    0  0  0  0  0  0  0  0  0  0  0  0
    6.7812   13.7944   22.2752 H    0  0  0  0  0  0  0  0  0  0  0  0
    5.6911   14.1045   23.6123 H    0  0  0  0  0  0  0  0  0  0  0  0
    6.8626   15.3291   23.1841 H    0  0  0  0  0  0  0  0  0  0  0  0
    8.5474    8.5980   22.9865 H    0  0  0  0  0  0  0  0  0  0  0  0
    9.7093    8.7404   24.3411 H    0  0  0  0  0  0  0  0  0  0  0  0
   10.2521    8.9804   22.6701 H    0  0  0  0  0  0  0  0  0  0  0  0
    5.9220   13.6847   26.1361 H    0  0  0  0  0  0  0  0  0  0  0  0
    4.9517   11.7635   27.3416 H    0  0  0  0  0  0  0  0  0  0  0  0
    5.7011    9.4487   26.8128 H    0  0  0  0  0  0  0  0  0  0  0  0
    7.4518    9.0647   25.1608 H    0  0  0  0  0  0  0  0  0  0  0  0
  8  9  1  0  0  0  0
  6  8  1  0  0  0  0
  5  6  1  0  0  0  0
  4  5  1  0  0  0  0
  2  4  1  0  0  0  0
  1  2  2  0  0  0  0
  3  2  1  0  0  0  0
 21  3  1  0  0  0  0
 22  3  1  0  0  0  0
 23  4  1  0  0  0  0
 24  5  1  0  0  0  0
 25  5  1  0  0  0  0
 26  6  1  0  0  0  0
 27  6  1  0  0  0  0
  7  4  1  0  0  0  0
 28  7  1  0  0  0  0
 29  7  1  0  0  0  0
 10  9  2  0  0  0  0
 11  9  1  0  0  0  0
 12 11  1  0  0  0  0
 30 12  1  0  0  0  0
 31 12  1  0  0  0  0
 32 12  1  0  0  0  0
 13 11  1  0  0  0  0
 14 13  1  0  0  0  0
 20 14  2  0  0  0  0
 15 14  1  0  0  0  0
 16 15  1  0  0  0  0
 33 16  1  0  0  0  0
 34 16  1  0  0  0  0
 35 16  1  0  0  0  0
 17 13  2  0  0  0  0
 36 17  1  0  0  0  0
 18 17  1  0  0  0  0
 37 18  1  0  0  0  0
 19 18  2  0  0  0  0
 38 19  1  0  0  0  0
 39 20  1  0  0  0  0
  8  7  1  0  0  0  0
 20 19  1  0  0  0  0
M  END
>  <FittedScore>
-33.25

$$$$
