A71EV2A-x4684a_lowest-energy
  FITTED

 39 40     0  0  0  0  0  0  0999 V2000
    9.7202   16.6828   19.5823 O    0  0  0  0  0  0  0  0  0  0  0  0
   10.3842   15.6916   19.8256 C    0  0  0  0  0  0  0  0  0  0  0  0
   10.8246   14.9081   18.8201 N    0  0  0  0  0  0  0  0  0  0  0  0
   10.5970   15.1258   21.2307 C    0  0  0  0  0  0  0  0  0  0  0  0
   11.2889   16.0770   22.2111 C    0  0  0  0  0  0  0  0  0  0  0  0
   10.8366   15.5369   23.5773 C    0  0  0  0  0  0  0  0  0  0  0  0
    9.3045   14.7159   21.9531 C    0  0  0  0  0  0  0  0  0  0  0  0
    9.5674   14.7852   23.4122 N    0  0  0  0  0  0  0  0  0  0  0  0
    8.9390   14.0868   24.4305 C    0  0  0  0  0  0  0  0  0  0  0  0
    9.5359   13.8384   25.4631 O    0  0  0  0  0  0  0  0  0  0  0  0
    7.6556   13.5967   24.2585 N    0  0  0  0  0  0  0  0  0  0  0  0
    6.6233   14.2820   23.4208 C    0  0  0  0  0  0  0  0  0  0  0  0
    7.1838   12.4216   24.9829 C    0  0  0  0  0  0  0  0  0  0  0  0
    7.6549   11.1137   24.6857 C    0  0  0  0  0  0  0  0  0  0  0  0
    8.9857   10.8827   23.5048 S    0  0  0  0  0  0  0  0  0  0  0  0
    9.3501    9.1039   23.3736 C    0  0  0  0  0  0  0  0  0  0  0  0
    6.1954   12.5873   25.9764 C    0  0  0  0  0  0  0  0  0  0  0  0
    5.6361   11.4794   26.6229 C    0  0  0  0  0  0  0  0  0  0  0  0
    6.0619   10.1928   26.2928 C    0  0  0  0  0  0  0  0  0  0  0  0
    7.0598   10.0096   25.3278 C    0  0  0  0  0  0  0  0  0  0  0  0
   10.7323   15.1996   17.8527 H    0  0  0  0  0  0  0  0  0  0  0  0
   11.1403   13.9572   19.0285 H    0  0  0  0  0  0  0  0  0  0  0  0
   11.2315   14.2305   21.1629 H    0  0  0  0  0  0  0  0  0  0  0  0
   12.3768   16.0428   22.0980 H    0  0  0  0  0  0  0  0  0  0  0  0
   10.9569   17.1121   22.0765 H    0  0  0  0  0  0  0  0  0  0  0  0
   11.6126   14.8829   23.9870 H    0  0  0  0  0  0  0  0  0  0  0  0
   10.6812   16.3641   24.2737 H    0  0  0  0  0  0  0  0  0  0  0  0
    9.0116   13.7076   21.6465 H    0  0  0  0  0  0  0  0  0  0  0  0
    8.4881   15.3980   21.6930 H    0  0  0  0  0  0  0  0  0  0  0  0
    6.6241   13.8697   22.4080 H    0  0  0  0  0  0  0  0  0  0  0  0
    5.6238   14.1587   23.8299 H    0  0  0  0  0  0  0  0  0  0  0  0
    6.7939   15.3613   23.3480 H    0  0  0  0  0  0  0  0  0  0  0  0
   10.2232    8.9445   22.7386 H    0  0  0  0  0  0  0  0  0  0  0  0
    8.4901    8.5991   22.9378 H    0  0  0  0  0  0  0  0  0  0  0  0
    9.5864    8.6965   24.3567 H    0  0  0  0  0  0  0  0  0  0  0  0
    5.8440   13.5790   26.2449 H    0  0  0  0  0  0  0  0  0  0  0  0
    4.8681   11.6232   27.3764 H    0  0  0  0  0  0  0  0  0  0  0  0
    5.6243    9.3312   26.7881 H    0  0  0  0  0  0  0  0  0  0  0  0
    7.3552    8.9892   25.1177 H    0  0  0  0  0  0  0  0  0  0  0  0
  8  9  1  0  0  0  0
  6  8  1  0  0  0  0
  5  6  1  0  0  0  0
  4  5  1  0  0  0  0
  2  4  1  0  0  0  0
  1  2  2  0  0  0  0
  3  2  1  0  0  0  0
 21  3  1  0  0  0  0
 22  3  1  0  0  0  0
 23  4  1  0  0  0  0
 24  5  1  0  0  0  0
 25  5  1  0  0  0  0
 26  6  1  0  0  0  0
 27  6  1  0  0  0  0
  7  4  1  0  0  0  0
 28  7  1  0  0  0  0
 29  7  1  0  0  0  0
 10  9  2  0  0  0  0
 11  9  1  0  0  0  0
 12 11  1  0  0  0  0
 30 12  1  0  0  0  0
 31 12  1  0  0  0  0
 32 12  1  0  0  0  0
 13 11  1  0  0  0  0
 14 13  1  0  0  0  0
 20 14  2  0  0  0  0
 15 14  1  0  0  0  0
 16 15  1  0  0  0  0
 33 16  1  0  0  0  0
 34 16  1  0  0  0  0
 35 16  1  0  0  0  0
 17 13  2  0  0  0  0
 36 17  1  0  0  0  0
 18 17  1  0  0  0  0
 37 18  1  0  0  0  0
 19 18  2  0  0  0  0
 38 19  1  0  0  0  0
 39 20  1  0  0  0  0
  8  7  1  0  0  0  0
 20 19  1  0  0  0  0
M  END
>  <FittedScore>
-34.09

$$$$
