A71EV2A-x5747a_lowest-energy
  FITTED

 42 43     0  0  0  0  0  0  0999 V2000
    9.0508    9.8857   24.6814 C    0  0  0  0  0  0  0  0  0  0  0  0
    8.2962   10.4843   25.3649 C    0  0  0  0  0  0  0  0  0  0  0  0
    7.3674   11.3072   26.1659 C    0  0  0  0  0  0  0  0  0  0  0  0
    6.2851   10.4322   26.8646 C    0  0  0  0  0  0  0  0  0  0  0  0
    5.2497   11.2589   27.6738 C    0  0  0  0  0  0  0  0  0  0  0  0
    4.6292   12.4197   26.8453 C    0  0  0  0  0  0  0  0  0  0  0  0
    5.6992   13.2724   26.1114 C    0  0  0  0  0  0  0  0  0  0  0  0
    6.6809   12.3930   25.2892 C    0  0  0  0  0  0  0  0  0  0  0  0
    7.6855   13.2806   24.7015 O    0  0  0  0  0  0  0  0  0  0  0  0
    7.7826   13.5773   23.3771 C    0  0  0  0  0  0  0  0  0  0  0  0
    7.0133   13.1082   22.5564 O    0  0  0  0  0  0  0  0  0  0  0  0
    8.7533   14.4857   23.0229 N    0  0  0  0  0  0  0  0  0  0  0  0
    9.5796   15.2759   24.0028 C    0  0  0  0  0  0  0  0  0  0  0  0
   11.0531   15.5376   23.5732 C    0  0  0  0  0  0  0  0  0  0  0  0
   11.1632   16.0734   22.1212 C    0  0  0  0  0  0  0  0  0  0  0  0
   10.3785   15.1441   21.1512 C    0  0  0  0  0  0  0  0  0  0  0  0
   10.4447   15.6192   19.7034 C    0  0  0  0  0  0  0  0  0  0  0  0
   10.7755   14.6895   18.7839 N    0  0  0  0  0  0  0  0  0  0  0  0
   10.0486   16.7073   19.3418 O    0  0  0  0  0  0  0  0  0  0  0  0
    8.8999   14.9802   21.6161 C    0  0  0  0  0  0  0  0  0  0  0  0
    9.7236    9.3586   24.0544 H    0  0  0  0  0  0  0  0  0  0  0  0
    7.9636   11.7964   26.9413 H    0  0  0  0  0  0  0  0  0  0  0  0
    6.7696    9.7236   27.5379 H    0  0  0  0  0  0  0  0  0  0  0  0
    5.7606    9.8240   26.1225 H    0  0  0  0  0  0  0  0  0  0  0  0
    5.7301   11.6619   28.5712 H    0  0  0  0  0  0  0  0  0  0  0  0
    4.4500   10.5936   28.0164 H    0  0  0  0  0  0  0  0  0  0  0  0
    4.0534   13.0646   27.5106 H    0  0  0  0  0  0  0  0  0  0  0  0
    3.9268   12.0120   26.1135 H    0  0  0  0  0  0  0  0  0  0  0  0
    6.2557   13.8693   26.8408 H    0  0  0  0  0  0  0  0  0  0  0  0
    5.2009   13.9754   25.4385 H    0  0  0  0  0  0  0  0  0  0  0  0
    6.1045   11.8716   24.5187 H    0  0  0  0  0  0  0  0  0  0  0  0
    9.6337   14.7846   24.9778 H    0  0  0  0  0  0  0  0  0  0  0  0
    9.0781   16.2327   24.1787 H    0  0  0  0  0  0  0  0  0  0  0  0
   11.6283   14.6107   23.6667 H    0  0  0  0  0  0  0  0  0  0  0  0
   11.5065   16.2555   24.2615 H    0  0  0  0  0  0  0  0  0  0  0  0
   12.2158   16.1157   21.8290 H    0  0  0  0  0  0  0  0  0  0  0  0
   10.7726   17.0951   22.0809 H    0  0  0  0  0  0  0  0  0  0  0  0
   10.8450   14.1561   21.2125 H    0  0  0  0  0  0  0  0  0  0  0  0
   10.7669   14.9441   17.8010 H    0  0  0  0  0  0  0  0  0  0  0  0
   10.9124   13.7151   19.0546 H    0  0  0  0  0  0  0  0  0  0  0  0
    8.4091   14.3221   20.8918 H    0  0  0  0  0  0  0  0  0  0  0  0
    8.3770   15.9393   21.5427 H    0  0  0  0  0  0  0  0  0  0  0  0
  9 10  1  0  0  0  0
  8  9  1  0  0  0  0
  7  8  1  0  0  0  0
  6  7  1  0  0  0  0
  5  6  1  0  0  0  0
  4  5  1  0  0  0  0
  3  4  1  0  0  0  0
  2  3  1  0  0  0  0
  1  2  3  0  0  0  0
 21  1  1  0  0  0  0
 22  3  1  0  0  0  0
 23  4  1  0  0  0  0
 24  4  1  0  0  0  0
 25  5  1  0  0  0  0
 26  5  1  0  0  0  0
 27  6  1  0  0  0  0
 28  6  1  0  0  0  0
 29  7  1  0  0  0  0
 30  7  1  0  0  0  0
 31  8  1  0  0  0  0
 11 10  2  0  0  0  0
 12 10  1  0  0  0  0
 13 12  1  0  0  0  0
 14 13  1  0  0  0  0
 32 13  1  0  0  0  0
 33 13  1  0  0  0  0
 15 14  1  0  0  0  0
 34 14  1  0  0  0  0
 35 14  1  0  0  0  0
 16 15  1  0  0  0  0
 36 15  1  0  0  0  0
 37 15  1  0  0  0  0
 17 16  1  0  0  0  0
 20 16  1  0  0  0  0
 38 16  1  0  0  0  0
 18 17  1  0  0  0  0
 19 17  2  0  0  0  0
 39 18  1  0  0  0  0
 40 18  1  0  0  0  0
 41 20  1  0  0  0  0
 42 20  1  0  0  0  0
  8  3  1  0  0  0  0
 20 12  1  0  0  0  0
M  END
>  <FittedScore>
-28.84

$$$$
