A71EV2A-x5747a_best-RMSD
  FITTED

 42 43     0  0  0  0  0  0  0999 V2000
    8.9867    9.9225   24.9366 C    0  0  0  0  0  0  0  0  0  0  0  0
    8.2068   10.5876   25.5189 C    0  0  0  0  0  0  0  0  0  0  0  0
    7.2377   11.4916   26.1744 C    0  0  0  0  0  0  0  0  0  0  0  0
    6.2013   10.6980   27.0281 C    0  0  0  0  0  0  0  0  0  0  0  0
    5.1289   11.6220   27.6692 C    0  0  0  0  0  0  0  0  0  0  0  0
    4.4263   12.5269   26.6199 C    0  0  0  0  0  0  0  0  0  0  0  0
    5.4364   13.3051   25.7324 C    0  0  0  0  0  0  0  0  0  0  0  0
    6.5243   12.3798   25.1134 C    0  0  0  0  0  0  0  0  0  0  0  0
    7.5270   13.2272   24.4911 O    0  0  0  0  0  0  0  0  0  0  0  0
    7.5205   13.6408   23.1949 C    0  0  0  0  0  0  0  0  0  0  0  0
    6.7278   13.1995   22.3763 O    0  0  0  0  0  0  0  0  0  0  0  0
    8.4909   14.5543   22.8627 N    0  0  0  0  0  0  0  0  0  0  0  0
    9.3149   15.3278   23.8625 C    0  0  0  0  0  0  0  0  0  0  0  0
   10.8090   15.5354   23.4809 C    0  0  0  0  0  0  0  0  0  0  0  0
   10.9867   16.0420   22.0328 C    0  0  0  0  0  0  0  0  0  0  0  0
   10.1783   15.1328   21.0670 C    0  0  0  0  0  0  0  0  0  0  0  0
   10.3260   15.5970   19.6270 C    0  0  0  0  0  0  0  0  0  0  0  0
   10.7591   14.6849   18.7409 N    0  0  0  0  0  0  0  0  0  0  0  0
    9.9512   16.6863   19.2610 O    0  0  0  0  0  0  0  0  0  0  0  0
    8.6791   15.0574   21.4718 C    0  0  0  0  0  0  0  0  0  0  0  0
    9.6907    9.3361   24.4046 H    0  0  0  0  0  0  0  0  0  0  0  0
    7.8110   12.1401   26.8460 H    0  0  0  0  0  0  0  0  0  0  0  0
    6.7232   10.1641   27.8258 H    0  0  0  0  0  0  0  0  0  0  0  0
    5.7068    9.9388   26.4131 H    0  0  0  0  0  0  0  0  0  0  0  0
    5.5920   12.2474   28.4379 H    0  0  0  0  0  0  0  0  0  0  0  0
    4.3791   11.0089   28.1751 H    0  0  0  0  0  0  0  0  0  0  0  0
    3.7738   13.2391   27.1315 H    0  0  0  0  0  0  0  0  0  0  0  0
    3.7826   11.9156   25.9810 H    0  0  0  0  0  0  0  0  0  0  0  0
    5.9096   14.0966   26.3227 H    0  0  0  0  0  0  0  0  0  0  0  0
    4.8879   13.8042   24.9277 H    0  0  0  0  0  0  0  0  0  0  0  0
    6.0595   11.7224   24.3701 H    0  0  0  0  0  0  0  0  0  0  0  0
    9.3168   14.8595   24.8478 H    0  0  0  0  0  0  0  0  0  0  0  0
    8.8401   16.3014   24.0055 H    0  0  0  0  0  0  0  0  0  0  0  0
   11.3501   14.5932   23.6056 H    0  0  0  0  0  0  0  0  0  0  0  0
   11.2582   16.2511   24.1705 H    0  0  0  0  0  0  0  0  0  0  0  0
   12.0464   16.0230   21.7620 H    0  0  0  0  0  0  0  0  0  0  0  0
   10.6547   17.0856   21.9627 H    0  0  0  0  0  0  0  0  0  0  0  0
   10.5928   14.1259   21.1305 H    0  0  0  0  0  0  0  0  0  0  0  0
   10.9368   13.7134   19.0219 H    0  0  0  0  0  0  0  0  0  0  0  0
   10.7551   14.9213   17.7524 H    0  0  0  0  0  0  0  0  0  0  0  0
    8.1713   14.4354   20.7279 H    0  0  0  0  0  0  0  0  0  0  0  0
    8.2078   16.0437   21.3908 H    0  0  0  0  0  0  0  0  0  0  0  0
  9 10  1  0  0  0  0
  8  9  1  0  0  0  0
  7  8  1  0  0  0  0
  6  7  1  0  0  0  0
  5  6  1  0  0  0  0
  4  5  1  0  0  0  0
  3  4  1  0  0  0  0
  2  3  1  0  0  0  0
  1  2  3  0  0  0  0
 21  1  1  0  0  0  0
 22  3  1  0  0  0  0
 23  4  1  0  0  0  0
 24  4  1  0  0  0  0
 25  5  1  0  0  0  0
 26  5  1  0  0  0  0
 27  6  1  0  0  0  0
 28  6  1  0  0  0  0
 29  7  1  0  0  0  0
 30  7  1  0  0  0  0
 31  8  1  0  0  0  0
 11 10  2  0  0  0  0
 12 10  1  0  0  0  0
 13 12  1  0  0  0  0
 14 13  1  0  0  0  0
 32 13  1  0  0  0  0
 33 13  1  0  0  0  0
 15 14  1  0  0  0  0
 34 14  1  0  0  0  0
 35 14  1  0  0  0  0
 16 15  1  0  0  0  0
 36 15  1  0  0  0  0
 37 15  1  0  0  0  0
 17 16  1  0  0  0  0
 20 16  1  0  0  0  0
 38 16  1  0  0  0  0
 18 17  1  0  0  0  0
 19 17  2  0  0  0  0
 39 18  1  0  0  0  0
 40 18  1  0  0  0  0
 41 20  1  0  0  0  0
 42 20  1  0  0  0  0
  8  3  1  0  0  0  0
 20 12  1  0  0  0  0
M  END
>  <FittedScore>
-28.17

$$$$
