A71EV2A-x5448a_best-RMSD
  FITTED

 35 36     0  0  0  0  0  0  0999 V2000
   10.4329    8.4308   23.9090 N    0  0  0  0  0  0  0  0  0  0  0  0
    9.6626    9.1415   24.3414 C    0  0  0  0  0  0  0  0  0  0  0  0
    8.7105   10.0499   24.9058 C    0  0  0  0  0  0  0  0  0  0  0  0
    7.5414    9.5661   25.4135 N    0  0  0  0  0  0  0  0  0  0  0  0
    6.6944   10.4522   26.0114 C    0  0  0  0  0  0  0  0  0  0  0  0
    6.9840   11.8242   26.0437 C    0  0  0  0  0  0  0  0  0  0  0  0
    8.1924   12.2423   25.4539 C    0  0  0  0  0  0  0  0  0  0  0  0
    8.5160   13.7053   25.2495 C    0  0  0  0  0  0  0  0  0  0  0  0
    8.2914   14.1205   23.7792 C    0  0  0  0  0  0  0  0  0  0  0  0
    7.6045   13.4160   23.0480 O    0  0  0  0  0  0  0  0  0  0  0  0
    8.9753   15.1999   23.2673 N    0  0  0  0  0  0  0  0  0  0  0  0
   10.0335   16.0025   23.9648 C    0  0  0  0  0  0  0  0  0  0  0  0
   11.4413   15.6716   23.4012 C    0  0  0  0  0  0  0  0  0  0  0  0
   11.5048   15.9472   21.8732 C    0  0  0  0  0  0  0  0  0  0  0  0
   10.3122   15.2764   21.1229 C    0  0  0  0  0  0  0  0  0  0  0  0
   10.3065   15.6938   19.6566 C    0  0  0  0  0  0  0  0  0  0  0  0
   10.7015   14.7442   18.7940 N    0  0  0  0  0  0  0  0  0  0  0  0
    9.9007   16.7665   19.2471 O    0  0  0  0  0  0  0  0  0  0  0  0
    8.9448   15.5705   21.8167 C    0  0  0  0  0  0  0  0  0  0  0  0
    9.0734   11.3534   24.9134 N    0  0  0  0  0  0  0  0  0  0  0  0
    5.7625   10.0960   26.4392 H    0  0  0  0  0  0  0  0  0  0  0  0
    6.2823   12.5327   26.4783 H    0  0  0  0  0  0  0  0  0  0  0  0
    9.5578   13.8218   25.5583 H    0  0  0  0  0  0  0  0  0  0  0  0
    7.9180   14.3379   25.9124 H    0  0  0  0  0  0  0  0  0  0  0  0
   10.0376   15.9016   25.0484 H    0  0  0  0  0  0  0  0  0  0  0  0
    9.8286   17.0682   23.8199 H    0  0  0  0  0  0  0  0  0  0  0  0
   11.6904   14.6249   23.6061 H    0  0  0  0  0  0  0  0  0  0  0  0
   12.1906   16.2836   23.9087 H    0  0  0  0  0  0  0  0  0  0  0  0
   12.4515   15.5673   21.4764 H    0  0  0  0  0  0  0  0  0  0  0  0
   11.4964   17.0288   21.7006 H    0  0  0  0  0  0  0  0  0  0  0  0
   10.4609   14.1904   21.1965 H    0  0  0  0  0  0  0  0  0  0  0  0
   10.8949   13.7986   19.1171 H    0  0  0  0  0  0  0  0  0  0  0  0
   10.6197   14.9112   17.8019 H    0  0  0  0  0  0  0  0  0  0  0  0
    8.1457   15.0694   21.2633 H    0  0  0  0  0  0  0  0  0  0  0  0
    8.7035   16.6344   21.7297 H    0  0  0  0  0  0  0  0  0  0  0  0
  9 11  1  0  0  0  0
  8  9  1  0  0  0  0
  7  8  1  0  0  0  0
  6  7  1  0  0  0  0
  5  6  2  0  0  0  0
  4  5  1  0  0  0  0
  3  4  2  0  0  0  0
  2  3  1  0  0  0  0
  1  2  3  0  0  0  0
 21  5  1  0  0  0  0
 22  6  1  0  0  0  0
 20  7  2  0  0  0  0
 23  8  1  0  0  0  0
 24  8  1  0  0  0  0
 10  9  2  0  0  0  0
 12 11  1  0  0  0  0
 13 12  1  0  0  0  0
 25 12  1  0  0  0  0
 26 12  1  0  0  0  0
 14 13  1  0  0  0  0
 27 13  1  0  0  0  0
 28 13  1  0  0  0  0
 15 14  1  0  0  0  0
 29 14  1  0  0  0  0
 30 14  1  0  0  0  0
 16 15  1  0  0  0  0
 19 15  1  0  0  0  0
 31 15  1  0  0  0  0
 17 16  1  0  0  0  0
 18 16  2  0  0  0  0
 32 17  1  0  0  0  0
 33 17  1  0  0  0  0
 34 19  1  0  0  0  0
 35 19  1  0  0  0  0
 19 11  1  0  0  0  0
 20  3  1  0  0  0  0
M  END
>  <FittedScore>
-30.21

$$$$
