A71EV2A-x5448a_lowest-energy
  FITTED

 35 36     0  0  0  0  0  0  0999 V2000
    5.0437    9.9055   27.5106 N    0  0  0  0  0  0  0  0  0  0  0  0
    5.9042   10.1346   26.8046 C    0  0  0  0  0  0  0  0  0  0  0  0
    7.0225   10.4179   25.9473 C    0  0  0  0  0  0  0  0  0  0  0  0
    7.6262    9.3890   25.2847 N    0  0  0  0  0  0  0  0  0  0  0  0
    8.7571    9.6605   24.5771 C    0  0  0  0  0  0  0  0  0  0  0  0
    9.2661   10.9624   24.4992 C    0  0  0  0  0  0  0  0  0  0  0  0
    8.5500   11.9814   25.1588 C    0  0  0  0  0  0  0  0  0  0  0  0
    8.9286   13.4291   24.9393 C    0  0  0  0  0  0  0  0  0  0  0  0
    8.4067   13.9540   23.5893 C    0  0  0  0  0  0  0  0  0  0  0  0
    7.5921   13.3006   22.9473 O    0  0  0  0  0  0  0  0  0  0  0  0
    8.9947   15.0794   23.0694 N    0  0  0  0  0  0  0  0  0  0  0  0
    9.9374   16.0037   23.7779 C    0  0  0  0  0  0  0  0  0  0  0  0
   11.3903   15.8684   23.2569 C    0  0  0  0  0  0  0  0  0  0  0  0
   11.4681   16.1073   21.7353 C    0  0  0  0  0  0  0  0  0  0  0  0
   10.3643   15.3008   20.9853 C    0  0  0  0  0  0  0  0  0  0  0  0
   10.3524   15.7128   19.5299 C    0  0  0  0  0  0  0  0  0  0  0  0
   10.8333   14.7818   18.6861 N    0  0  0  0  0  0  0  0  0  0  0  0
    9.9226   16.7800   19.1413 O    0  0  0  0  0  0  0  0  0  0  0  0
    8.9448   15.4308   21.6241 C    0  0  0  0  0  0  0  0  0  0  0  0
    7.4374   11.7105   25.8984 N    0  0  0  0  0  0  0  0  0  0  0  0
    9.2666    8.8552   24.0536 H    0  0  0  0  0  0  0  0  0  0  0  0
   10.1586   11.1749   23.9120 H    0  0  0  0  0  0  0  0  0  0  0  0
   10.0204   13.4890   24.9748 H    0  0  0  0  0  0  0  0  0  0  0  0
    8.5437   14.0561   25.7478 H    0  0  0  0  0  0  0  0  0  0  0  0
    9.9267   15.8831   24.8607 H    0  0  0  0  0  0  0  0  0  0  0  0
    9.5996   17.0353   23.6322 H    0  0  0  0  0  0  0  0  0  0  0  0
   11.7836   14.8753   23.4918 H    0  0  0  0  0  0  0  0  0  0  0  0
   12.0309   16.5944   23.7627 H    0  0  0  0  0  0  0  0  0  0  0  0
   12.4483   15.7972   21.3616 H    0  0  0  0  0  0  0  0  0  0  0  0
   11.3810   17.1822   21.5238 H    0  0  0  0  0  0  0  0  0  0  0  0
   10.6358   14.2411   21.0395 H    0  0  0  0  0  0  0  0  0  0  0  0
   10.8286   14.9826   17.6970 H    0  0  0  0  0  0  0  0  0  0  0  0
   11.0645   13.8326   19.0081 H    0  0  0  0  0  0  0  0  0  0  0  0
    8.2534   14.8002   21.0509 H    0  0  0  0  0  0  0  0  0  0  0  0
    8.5509   16.4471   21.5065 H    0  0  0  0  0  0  0  0  0  0  0  0
  9 11  1  0  0  0  0
  8  9  1  0  0  0  0
  7  8  1  0  0  0  0
  6  7  1  0  0  0  0
  5  6  2  0  0  0  0
  4  5  1  0  0  0  0
  3  4  2  0  0  0  0
  2  3  1  0  0  0  0
  1  2  3  0  0  0  0
 21  5  1  0  0  0  0
 22  6  1  0  0  0  0
 20  7  2  0  0  0  0
 23  8  1  0  0  0  0
 24  8  1  0  0  0  0
 10  9  2  0  0  0  0
 12 11  1  0  0  0  0
 13 12  1  0  0  0  0
 25 12  1  0  0  0  0
 26 12  1  0  0  0  0
 14 13  1  0  0  0  0
 27 13  1  0  0  0  0
 28 13  1  0  0  0  0
 15 14  1  0  0  0  0
 29 14  1  0  0  0  0
 30 14  1  0  0  0  0
 16 15  1  0  0  0  0
 19 15  1  0  0  0  0
 31 15  1  0  0  0  0
 17 16  1  0  0  0  0
 18 16  2  0  0  0  0
 32 17  1  0  0  0  0
 33 17  1  0  0  0  0
 34 19  1  0  0  0  0
 35 19  1  0  0  0  0
 19 11  1  0  0  0  0
 20  3  1  0  0  0  0
M  END
>  <FittedScore>
-31.20

$$$$
