A71EV2A-x3222a_best-RMSD
  FITTED

 30 31     0  0  0  0  0  0  0999 V2000
    9.4130   10.5872   23.9297 BR   0  0  0  0  0  0  0  0  0  0  0  0
    7.9032   11.3978   24.7559 C    0  0  0  0  0  0  0  0  0  0  0  0
    7.2304   10.8906   25.8449 C    0  0  0  0  0  0  0  0  0  0  0  0
    5.9450   11.5890   26.0729 N    0  0  0  0  0  0  0  0  0  0  0  0
    5.9708   12.4297   24.9986 N    0  0  0  0  0  0  0  0  0  0  0  0
    7.0874   12.3719   24.2206 C    0  0  0  0  0  0  0  0  0  0  0  0
    7.2858   13.1517   22.9530 C    0  0  0  0  0  0  0  0  0  0  0  0
    6.3773   13.1817   22.1380 O    0  0  0  0  0  0  0  0  0  0  0  0
    8.4092   13.9418   22.8320 N    0  0  0  0  0  0  0  0  0  0  0  0
    9.2669   14.4488   23.9641 C    0  0  0  0  0  0  0  0  0  0  0  0
   10.7844   14.5737   23.6336 C    0  0  0  0  0  0  0  0  0  0  0  0
   11.0397   15.3486   22.3089 C    0  0  0  0  0  0  0  0  0  0  0  0
    8.6617   14.7157   21.5816 C    0  0  0  0  0  0  0  0  0  0  0  0
   10.1581   14.7595   21.1768 C    0  0  0  0  0  0  0  0  0  0  0  0
   10.3660   15.4284   19.8200 C    0  0  0  0  0  0  0  0  0  0  0  0
    9.6920   16.3666   19.4374 O    0  0  0  0  0  0  0  0  0  0  0  0
   11.0622   14.6965   18.9255 N    0  0  0  0  0  0  0  0  0  0  0  0
    7.5424   10.0473   26.4538 H    0  0  0  0  0  0  0  0  0  0  0  0
    5.1729   12.9852   24.7098 H    0  0  0  0  0  0  0  0  0  0  0  0
    8.8868   15.4305   24.2586 H    0  0  0  0  0  0  0  0  0  0  0  0
    9.1893   13.8402   24.8641 H    0  0  0  0  0  0  0  0  0  0  0  0
   11.2936   15.0787   24.4569 H    0  0  0  0  0  0  0  0  0  0  0  0
   11.2232   13.5745   23.5618 H    0  0  0  0  0  0  0  0  0  0  0  0
   10.8279   16.4121   22.4476 H    0  0  0  0  0  0  0  0  0  0  0  0
   12.0954   15.2668   22.0350 H    0  0  0  0  0  0  0  0  0  0  0  0
    8.2635   15.7266   21.7154 H    0  0  0  0  0  0  0  0  0  0  0  0
    8.1139   14.2850   20.7361 H    0  0  0  0  0  0  0  0  0  0  0  0
   10.4518   13.7037   21.0826 H    0  0  0  0  0  0  0  0  0  0  0  0
   11.0557   14.9736   17.9501 H    0  0  0  0  0  0  0  0  0  0  0  0
   11.2842   13.7301   19.1594 H    0  0  0  0  0  0  0  0  0  0  0  0
  7  9  1  0  0  0  0
  6  7  1  0  0  0  0
  5  6  1  0  0  0  0
  4  5  1  0  0  0  0
  3  4  2  0  0  0  0
  2  3  1  0  0  0  0
  1  2  1  0  0  0  0
 18  3  1  0  0  0  0
 19  5  1  0  0  0  0
  8  7  2  0  0  0  0
 10  9  1  0  0  0  0
 20 10  1  0  0  0  0
 21 10  1  0  0  0  0
 11 10  1  0  0  0  0
 22 11  1  0  0  0  0
 23 11  1  0  0  0  0
 12 11  1  0  0  0  0
 24 12  1  0  0  0  0
 25 12  1  0  0  0  0
 13  9  1  0  0  0  0
 26 13  1  0  0  0  0
 27 13  1  0  0  0  0
 14 12  1  0  0  0  0
 15 14  1  0  0  0  0
 28 14  1  0  0  0  0
 16 15  2  0  0  0  0
 17 15  1  0  0  0  0
 29 17  1  0  0  0  0
 30 17  1  0  0  0  0
  6  2  2  0  0  0  0
 14 13  1  0  0  0  0
M  END
>  <FittedScore>
-29.52

$$$$
