A71EV2A-x4735a_best-RMSD
  FITTED

 40 42     0  0  0  0  0  0  0999 V2000
    8.5858   12.7970   22.7415 O    0  0  0  0  0  0  0  0  0  0  0  0
    9.4019   13.1888   23.5561 C    0  0  0  0  0  0  0  0  0  0  0  0
    9.2414   12.8616   25.0470 C    0  0  0  0  0  0  0  0  0  0  0  0
    8.1206   11.8639   25.3578 C    0  0  0  0  0  0  0  0  0  0  0  0
    6.8630   12.3685   25.7446 C    0  0  0  0  0  0  0  0  0  0  0  0
    5.8059   11.4988   26.0429 C    0  0  0  0  0  0  0  0  0  0  0  0
    5.9832   10.1163   25.9266 C    0  0  0  0  0  0  0  0  0  0  0  0
    7.2184    9.6062   25.5107 C    0  0  0  0  0  0  0  0  0  0  0  0
    8.2955   10.4626   25.2353 C    0  0  0  0  0  0  0  0  0  0  0  0
    9.8491    9.7272   24.7532 S    0  0  0  0  0  0  0  0  0  0  0  0
    9.4175    8.9735   23.1600 C    0  0  0  0  0  0  0  0  0  0  0  0
   10.4366   14.0005   23.1730 N    0  0  0  0  0  0  0  0  0  0  0  0
   10.6427   14.5533   21.8041 C    0  0  0  0  0  0  0  0  0  0  0  0
   12.0699   15.1115   21.7722 C    0  0  0  0  0  0  0  0  0  0  0  0
   12.4024   15.4443   23.2275 C    0  0  0  0  0  0  0  0  0  0  0  0
   11.5171   14.5041   24.0478 C    0  0  0  0  0  0  0  0  0  0  0  0
    9.6286   15.6372   21.4497 C    0  0  0  0  0  0  0  0  0  0  0  0
    9.2317   16.6681   22.2242 N    0  0  0  0  0  0  0  0  0  0  0  0
    8.4841   17.5997   21.6038 C    0  0  0  0  0  0  0  0  0  0  0  0
    8.2720   17.1332   20.2207 N    0  0  0  0  0  0  0  0  0  0  0  0
    9.0417   15.8618   20.2125 C    0  0  0  0  0  0  0  0  0  0  0  0
   10.1783   12.4894   25.4673 H    0  0  0  0  0  0  0  0  0  0  0  0
    9.0512   13.7960   25.5798 H    0  0  0  0  0  0  0  0  0  0  0  0
    6.7009   13.4424   25.8127 H    0  0  0  0  0  0  0  0  0  0  0  0
    4.8453   11.9014   26.3500 H    0  0  0  0  0  0  0  0  0  0  0  0
    5.1603    9.4409   26.1433 H    0  0  0  0  0  0  0  0  0  0  0  0
    7.3416    8.5307   25.4204 H    0  0  0  0  0  0  0  0  0  0  0  0
   10.2879    8.4560   22.7521 H    0  0  0  0  0  0  0  0  0  0  0  0
    9.1080    9.7616   22.4708 H    0  0  0  0  0  0  0  0  0  0  0  0
    8.6105    8.2526   23.2905 H    0  0  0  0  0  0  0  0  0  0  0  0
   10.5635   13.7374   21.0783 H    0  0  0  0  0  0  0  0  0  0  0  0
   12.7557   14.3418   21.4057 H    0  0  0  0  0  0  0  0  0  0  0  0
   12.1754   15.9861   21.1224 H    0  0  0  0  0  0  0  0  0  0  0  0
   13.4589   15.2713   23.4451 H    0  0  0  0  0  0  0  0  0  0  0  0
   12.1725   16.4931   23.4410 H    0  0  0  0  0  0  0  0  0  0  0  0
   12.1039   13.6656   24.4321 H    0  0  0  0  0  0  0  0  0  0  0  0
   11.1007   15.0518   24.8966 H    0  0  0  0  0  0  0  0  0  0  0  0
    9.6930   16.8753   23.1007 H    0  0  0  0  0  0  0  0  0  0  0  0
    8.1046   18.5278   22.0241 H    0  0  0  0  0  0  0  0  0  0  0  0
    9.1442   15.2498   19.3209 H    0  0  0  0  0  0  0  0  0  0  0  0
  2  1  2  0  0  0  0
  3  2  1  0  0  0  0
 22  3  1  0  0  0  0
 23  3  1  0  0  0  0
  4  3  1  0  0  0  0
  5  4  1  0  0  0  0
 24  5  1  0  0  0  0
  6  5  2  0  0  0  0
 25  6  1  0  0  0  0
  7  6  1  0  0  0  0
 26  7  1  0  0  0  0
  8  7  2  0  0  0  0
 27  8  1  0  0  0  0
  9  8  1  0  0  0  0
 10  9  1  0  0  0  0
 11 10  1  0  0  0  0
 28 11  1  0  0  0  0
 29 11  1  0  0  0  0
 30 11  1  0  0  0  0
 12  2  1  0  0  0  0
 16 12  1  0  0  0  0
 13 12  1  0  0  0  0
 17 13  1  0  0  0  0
 31 13  1  0  0  0  0
 14 13  1  0  0  0  0
 32 14  1  0  0  0  0
 33 14  1  0  0  0  0
 15 14  1  0  0  0  0
 34 15  1  0  0  0  0
 35 15  1  0  0  0  0
 36 16  1  0  0  0  0
 37 16  1  0  0  0  0
 21 17  2  0  0  0  0
 18 17  1  0  0  0  0
 38 18  1  0  0  0  0
 19 18  1  0  0  0  0
 39 19  1  0  0  0  0
 20 19  2  0  0  0  0
 40 21  1  0  0  0  0
  9  4  2  0  0  0  0
 16 15  1  0  0  0  0
 21 20  1  0  0  0  0
M  END
>  <FittedScore>
-26.70

$$$$
