A71EV2A-x4735a_lowest-energy
  FITTED

 40 42     0  0  0  0  0  0  0999 V2000
    8.7089   12.7779   22.6851 O    0  0  0  0  0  0  0  0  0  0  0  0
    9.5485   13.1343   23.4890 C    0  0  0  0  0  0  0  0  0  0  0  0
    9.4400   12.7411   24.9691 C    0  0  0  0  0  0  0  0  0  0  0  0
    8.3054   11.7527   25.2705 C    0  0  0  0  0  0  0  0  0  0  0  0
    7.0521   12.2675   25.6633 C    0  0  0  0  0  0  0  0  0  0  0  0
    5.9866   11.4069   25.9614 C    0  0  0  0  0  0  0  0  0  0  0  0
    6.1489   10.0221   25.8332 C    0  0  0  0  0  0  0  0  0  0  0  0
    7.3734    9.5040   25.3976 C    0  0  0  0  0  0  0  0  0  0  0  0
    8.4587   10.3524   25.1290 C    0  0  0  0  0  0  0  0  0  0  0  0
    9.9893    9.5993   24.6196 S    0  0  0  0  0  0  0  0  0  0  0  0
    9.5553    9.0172   22.9570 C    0  0  0  0  0  0  0  0  0  0  0  0
   10.5441   13.9986   23.1123 N    0  0  0  0  0  0  0  0  0  0  0  0
   10.7094   14.5838   21.7536 C    0  0  0  0  0  0  0  0  0  0  0  0
   12.1133   15.1933   21.7150 C    0  0  0  0  0  0  0  0  0  0  0  0
   12.4375   15.5333   23.1700 C    0  0  0  0  0  0  0  0  0  0  0  0
   11.6136   14.5319   23.9850 C    0  0  0  0  0  0  0  0  0  0  0  0
    9.6534   15.6355   21.4302 C    0  0  0  0  0  0  0  0  0  0  0  0
    9.2114   16.6256   22.2373 N    0  0  0  0  0  0  0  0  0  0  0  0
    8.4641   17.5640   21.6221 C    0  0  0  0  0  0  0  0  0  0  0  0
    8.2608   17.1204   20.2302 N    0  0  0  0  0  0  0  0  0  0  0  0
    9.0767   15.8812   20.1918 C    0  0  0  0  0  0  0  0  0  0  0  0
    9.2801   13.6500   25.5560 H    0  0  0  0  0  0  0  0  0  0  0  0
   10.3914   12.3377   25.3229 H    0  0  0  0  0  0  0  0  0  0  0  0
    6.8996   13.3421   25.7386 H    0  0  0  0  0  0  0  0  0  0  0  0
    5.0328   11.8160   26.2798 H    0  0  0  0  0  0  0  0  0  0  0  0
    5.3243    9.3515   26.0619 H    0  0  0  0  0  0  0  0  0  0  0  0
    7.4837    8.4273   25.2882 H    0  0  0  0  0  0  0  0  0  0  0  0
   10.4423    8.5913   22.4855 H    0  0  0  0  0  0  0  0  0  0  0  0
    9.2005    9.8543   22.3516 H    0  0  0  0  0  0  0  0  0  0  0  0
    8.7803    8.2513   23.0217 H    0  0  0  0  0  0  0  0  0  0  0  0
   10.6565   13.7791   21.0102 H    0  0  0  0  0  0  0  0  0  0  0  0
   12.8280   14.4510   21.3480 H    0  0  0  0  0  0  0  0  0  0  0  0
   12.1825   16.0723   21.0657 H    0  0  0  0  0  0  0  0  0  0  0  0
   13.5055   15.4167   23.3711 H    0  0  0  0  0  0  0  0  0  0  0  0
   12.1527   16.5644   23.4039 H    0  0  0  0  0  0  0  0  0  0  0  0
   12.2503   13.7147   24.3342 H    0  0  0  0  0  0  0  0  0  0  0  0
   11.1838   15.0368   24.8537 H    0  0  0  0  0  0  0  0  0  0  0  0
    9.7031   16.8501   23.0945 H    0  0  0  0  0  0  0  0  0  0  0  0
    8.0975   18.4966   22.0421 H    0  0  0  0  0  0  0  0  0  0  0  0
    9.2225   15.3066   19.2805 H    0  0  0  0  0  0  0  0  0  0  0  0
  2  1  2  0  0  0  0
  3  2  1  0  0  0  0
 22  3  1  0  0  0  0
 23  3  1  0  0  0  0
  4  3  1  0  0  0  0
  5  4  1  0  0  0  0
 24  5  1  0  0  0  0
  6  5  2  0  0  0  0
 25  6  1  0  0  0  0
  7  6  1  0  0  0  0
 26  7  1  0  0  0  0
  8  7  2  0  0  0  0
 27  8  1  0  0  0  0
  9  8  1  0  0  0  0
 10  9  1  0  0  0  0
 11 10  1  0  0  0  0
 28 11  1  0  0  0  0
 29 11  1  0  0  0  0
 30 11  1  0  0  0  0
 12  2  1  0  0  0  0
 16 12  1  0  0  0  0
 13 12  1  0  0  0  0
 17 13  1  0  0  0  0
 31 13  1  0  0  0  0
 14 13  1  0  0  0  0
 32 14  1  0  0  0  0
 33 14  1  0  0  0  0
 15 14  1  0  0  0  0
 34 15  1  0  0  0  0
 35 15  1  0  0  0  0
 36 16  1  0  0  0  0
 37 16  1  0  0  0  0
 21 17  2  0  0  0  0
 18 17  1  0  0  0  0
 38 18  1  0  0  0  0
 19 18  1  0  0  0  0
 39 19  1  0  0  0  0
 20 19  2  0  0  0  0
 40 21  1  0  0  0  0
  9  4  2  0  0  0  0
 16 15  1  0  0  0  0
 21 20  1  0  0  0  0
M  END
>  <FittedScore>
-26.69

$$$$
