A71EV2A-x3581a_best-RMSD
  FITTED

 37 38     0  0  0  0  0  0  0999 V2000
    9.8856   16.6030   19.5153 O    0  0  0  0  0  0  0  0  0  0  0  0
   10.6172   15.6493   19.7084 C    0  0  0  0  0  0  0  0  0  0  0  0
   10.9043   14.8114   18.6957 N    0  0  0  0  0  0  0  0  0  0  0  0
   10.9038   15.0793   21.0947 C    0  0  0  0  0  0  0  0  0  0  0  0
   11.5950   15.9954   22.1094 C    0  0  0  0  0  0  0  0  0  0  0  0
   11.2190   15.3433   23.4572 C    0  0  0  0  0  0  0  0  0  0  0  0
    9.6391   14.6059   21.8335 C    0  0  0  0  0  0  0  0  0  0  0  0
    9.9666   14.5719   23.2726 N    0  0  0  0  0  0  0  0  0  0  0  0
    9.2269   13.9958   24.2782 C    0  0  0  0  0  0  0  0  0  0  0  0
    9.6463   13.9466   25.4218 O    0  0  0  0  0  0  0  0  0  0  0  0
    7.7834   13.5576   23.9709 C    0  0  0  0  0  0  0  0  0  0  0  0
    7.2791   12.4014   24.8405 C    0  0  0  0  0  0  0  0  0  0  0  0
    7.7224   11.0756   24.6249 C    0  0  0  0  0  0  0  0  0  0  0  0
    8.6821   10.8672   23.6421 O    0  0  0  0  0  0  0  0  0  0  0  0
    9.3868    9.6278   23.4087 C    0  0  0  0  0  0  0  0  0  0  0  0
    6.3208   12.6570   25.8374 C    0  0  0  0  0  0  0  0  0  0  0  0
    5.7980   11.6134   26.6133 C    0  0  0  0  0  0  0  0  0  0  0  0
    6.2172   10.2961   26.3867 C    0  0  0  0  0  0  0  0  0  0  0  0
    7.1685   10.0283   25.3927 C    0  0  0  0  0  0  0  0  0  0  0  0
   11.1619   13.8448   18.9002 H    0  0  0  0  0  0  0  0  0  0  0  0
   10.8043   15.1108   17.7320 H    0  0  0  0  0  0  0  0  0  0  0  0
   11.5647   14.2032   20.9877 H    0  0  0  0  0  0  0  0  0  0  0  0
   12.6799   16.0196   21.9613 H    0  0  0  0  0  0  0  0  0  0  0  0
   11.2089   17.0150   22.0584 H    0  0  0  0  0  0  0  0  0  0  0  0
   12.0176   14.6766   23.7992 H    0  0  0  0  0  0  0  0  0  0  0  0
   11.0760   16.1175   24.2163 H    0  0  0  0  0  0  0  0  0  0  0  0
    9.3725   13.6101   21.4636 H    0  0  0  0  0  0  0  0  0  0  0  0
    8.7918   15.2773   21.6660 H    0  0  0  0  0  0  0  0  0  0  0  0
    7.1428   14.4375   24.0777 H    0  0  0  0  0  0  0  0  0  0  0  0
    7.6431   13.2373   22.9373 H    0  0  0  0  0  0  0  0  0  0  0  0
    8.7090    8.8480   23.0474 H    0  0  0  0  0  0  0  0  0  0  0  0
    9.8793    9.3007   24.3280 H    0  0  0  0  0  0  0  0  0  0  0  0
   10.1563    9.8057   22.6532 H    0  0  0  0  0  0  0  0  0  0  0  0
    5.9602   13.6737   26.0086 H    0  0  0  0  0  0  0  0  0  0  0  0
    5.0612   11.8307   27.3825 H    0  0  0  0  0  0  0  0  0  0  0  0
    5.8040    9.4881   26.9827 H    0  0  0  0  0  0  0  0  0  0  0  0
    7.4675    8.9937   25.2432 H    0  0  0  0  0  0  0  0  0  0  0  0
  8  9  1  0  0  0  0
  6  8  1  0  0  0  0
  5  6  1  0  0  0  0
  4  5  1  0  0  0  0
  2  4  1  0  0  0  0
  1  2  2  0  0  0  0
  3  2  1  0  0  0  0
 20  3  1  0  0  0  0
 21  3  1  0  0  0  0
 22  4  1  0  0  0  0
 23  5  1  0  0  0  0
 24  5  1  0  0  0  0
 25  6  1  0  0  0  0
 26  6  1  0  0  0  0
  7  4  1  0  0  0  0
 27  7  1  0  0  0  0
 28  7  1  0  0  0  0
 10  9  2  0  0  0  0
 11  9  1  0  0  0  0
 29 11  1  0  0  0  0
 30 11  1  0  0  0  0
 12 11  1  0  0  0  0
 13 12  1  0  0  0  0
 19 13  2  0  0  0  0
 14 13  1  0  0  0  0
 15 14  1  0  0  0  0
 31 15  1  0  0  0  0
 32 15  1  0  0  0  0
 33 15  1  0  0  0  0
 16 12  2  0  0  0  0
 34 16  1  0  0  0  0
 17 16  1  0  0  0  0
 35 17  1  0  0  0  0
 18 17  2  0  0  0  0
 36 18  1  0  0  0  0
 37 19  1  0  0  0  0
  8  7  1  0  0  0  0
 19 18  1  0  0  0  0
M  END
>  <FittedScore>
-34.56

$$$$
