A71EV2A-x3581a_lowest-energy
  FITTED

 37 38     0  0  0  0  0  0  0999 V2000
    9.9900   16.6385   19.4934 O    0  0  0  0  0  0  0  0  0  0  0  0
   10.7015   15.6771   19.6953 C    0  0  0  0  0  0  0  0  0  0  0  0
   10.8965   14.7906   18.7045 N    0  0  0  0  0  0  0  0  0  0  0  0
   10.9880   15.1224   21.0859 C    0  0  0  0  0  0  0  0  0  0  0  0
   11.6463   16.0623   22.1001 C    0  0  0  0  0  0  0  0  0  0  0  0
   11.2673   15.4143   23.4471 C    0  0  0  0  0  0  0  0  0  0  0  0
    9.7169   14.6579   21.8096 C    0  0  0  0  0  0  0  0  0  0  0  0
   10.0114   14.6476   23.2528 N    0  0  0  0  0  0  0  0  0  0  0  0
    9.2539   14.0621   24.2368 C    0  0  0  0  0  0  0  0  0  0  0  0
    9.6412   14.0297   25.3961 O    0  0  0  0  0  0  0  0  0  0  0  0
    7.8461   13.5471   23.8785 C    0  0  0  0  0  0  0  0  0  0  0  0
    7.3494   12.3933   24.7533 C    0  0  0  0  0  0  0  0  0  0  0  0
    7.8247   11.0709   24.5778 C    0  0  0  0  0  0  0  0  0  0  0  0
    8.8393   10.8482   23.6453 O    0  0  0  0  0  0  0  0  0  0  0  0
    9.3976    9.5520   23.3234 C    0  0  0  0  0  0  0  0  0  0  0  0
    6.3583   12.6523   25.7159 C    0  0  0  0  0  0  0  0  0  0  0  0
    5.8179   11.6157   26.4813 C    0  0  0  0  0  0  0  0  0  0  0  0
    6.2584   10.3034   26.2891 C    0  0  0  0  0  0  0  0  0  0  0  0
    7.2462   10.0270   25.3381 C    0  0  0  0  0  0  0  0  0  0  0  0
   10.7451   15.0548   17.7364 H    0  0  0  0  0  0  0  0  0  0  0  0
   11.1015   13.8223   18.9399 H    0  0  0  0  0  0  0  0  0  0  0  0
   11.6585   14.2571   21.0038 H    0  0  0  0  0  0  0  0  0  0  0  0
   12.7314   16.1172   21.9612 H    0  0  0  0  0  0  0  0  0  0  0  0
   11.2336   17.0732   22.0331 H    0  0  0  0  0  0  0  0  0  0  0  0
   12.0659   14.7520   23.7904 H    0  0  0  0  0  0  0  0  0  0  0  0
   11.1247   16.1921   24.2022 H    0  0  0  0  0  0  0  0  0  0  0  0
    9.4692   13.6547   21.4472 H    0  0  0  0  0  0  0  0  0  0  0  0
    8.8640   15.3181   21.6191 H    0  0  0  0  0  0  0  0  0  0  0  0
    7.1559   14.3950   23.9161 H    0  0  0  0  0  0  0  0  0  0  0  0
    7.7624   13.1868   22.8535 H    0  0  0  0  0  0  0  0  0  0  0  0
   10.1697    9.6810   22.5632 H    0  0  0  0  0  0  0  0  0  0  0  0
    8.6269    8.8809   22.9305 H    0  0  0  0  0  0  0  0  0  0  0  0
    9.8596    9.1117   24.2063 H    0  0  0  0  0  0  0  0  0  0  0  0
    5.9924   13.6641   25.8634 H    0  0  0  0  0  0  0  0  0  0  0  0
    5.0508   11.8328   27.2181 H    0  0  0  0  0  0  0  0  0  0  0  0
    5.8251    9.4945   26.8732 H    0  0  0  0  0  0  0  0  0  0  0  0
    7.5510    8.9906   25.2111 H    0  0  0  0  0  0  0  0  0  0  0  0
  8  9  1  0  0  0  0
  6  8  1  0  0  0  0
  5  6  1  0  0  0  0
  4  5  1  0  0  0  0
  2  4  1  0  0  0  0
  1  2  2  0  0  0  0
  3  2  1  0  0  0  0
 20  3  1  0  0  0  0
 21  3  1  0  0  0  0
 22  4  1  0  0  0  0
 23  5  1  0  0  0  0
 24  5  1  0  0  0  0
 25  6  1  0  0  0  0
 26  6  1  0  0  0  0
  7  4  1  0  0  0  0
 27  7  1  0  0  0  0
 28  7  1  0  0  0  0
 10  9  2  0  0  0  0
 11  9  1  0  0  0  0
 29 11  1  0  0  0  0
 30 11  1  0  0  0  0
 12 11  1  0  0  0  0
 13 12  1  0  0  0  0
 19 13  2  0  0  0  0
 14 13  1  0  0  0  0
 15 14  1  0  0  0  0
 31 15  1  0  0  0  0
 32 15  1  0  0  0  0
 33 15  1  0  0  0  0
 16 12  2  0  0  0  0
 34 16  1  0  0  0  0
 17 16  1  0  0  0  0
 35 17  1  0  0  0  0
 18 17  2  0  0  0  0
 36 18  1  0  0  0  0
 37 19  1  0  0  0  0
  8  7  1  0  0  0  0
 19 18  1  0  0  0  0
M  END
>  <FittedScore>
-35.30

$$$$
