A71EV2A-x7369b_best-RMSD
  FITTED

 58 61     0  0  0  0  0  0  0999 V2000
   10.2639   16.7472   19.1306 O    0  0  0  0  0  0  0  0  0  0  0  0
   10.7413   15.7017   19.5028 C    0  0  0  0  0  0  0  0  0  0  0  0
   11.0668   14.7954   18.5706 N    0  0  0  0  0  0  0  0  0  0  0  0
   10.6993   15.2594   20.9659 C    0  0  0  0  0  0  0  0  0  0  0  0
    9.2229   15.0622   21.4403 C    0  0  0  0  0  0  0  0  0  0  0  0
   11.4814   16.2704   21.8690 C    0  0  0  0  0  0  0  0  0  0  0  0
   11.3686   15.8802   23.3494 C    0  0  0  0  0  0  0  0  0  0  0  0
   10.1459   15.1501   23.8176 C    0  0  0  0  0  0  0  0  0  0  0  0
   11.4937   14.4956   23.9386 C    0  0  0  0  0  0  0  0  0  0  0  0
    9.0871   14.6323   22.8674 N    0  0  0  0  0  0  0  0  0  0  0  0
    8.0824   13.7937   23.3183 C    0  0  0  0  0  0  0  0  0  0  0  0
    7.2975   13.2613   22.5466 O    0  0  0  0  0  0  0  0  0  0  0  0
    7.9056   13.5325   24.8289 C    0  0  0  0  0  0  0  0  0  0  0  0
    7.2266   12.2032   25.2020 C    0  0  0  0  0  0  0  0  0  0  0  0
    7.7853   10.9496   24.8374 C    0  0  0  0  0  0  0  0  0  0  0  0
    9.3358   10.8586   23.9224 S    0  0  0  0  0  0  0  0  0  0  0  0
    9.5834    9.1620   23.3395 C    0  0  0  0  0  0  0  0  0  0  0  0
    6.0894   12.2353   26.0384 C    0  0  0  0  0  0  0  0  0  0  0  0
    5.4498   11.0510   26.4393 C    0  0  0  0  0  0  0  0  0  0  0  0
    5.9185    9.8329   25.9541 C    0  0  0  0  0  0  0  0  0  0  0  0
    7.0945    9.7794   25.2026 C    0  0  0  0  0  0  0  0  0  0  0  0
    4.3833   11.0735   27.4777 C    0  0  0  0  0  0  0  0  0  0  0  0
    4.5455   12.0009   28.6812 C    0  0  0  0  0  0  0  0  0  0  0  0
    3.5512   11.6811   29.8411 C    0  0  0  0  0  0  0  0  0  0  0  0
    2.1501   11.3929   29.2984 N    0  0  0  0  0  0  0  0  0  0  0  0
    1.1226   11.2058   30.4075 C    0  0  0  0  0  0  0  0  0  0  0  0
    2.1616   10.2277   28.2958 C    0  0  0  0  0  0  0  0  0  0  0  0
    3.3415   10.2552   27.3327 C    0  0  0  0  0  0  0  0  0  0  0  0
   11.0019   15.0459   17.5970 H    0  0  0  0  0  0  0  0  0  0  0  0
   11.1858   13.8201   18.8233 H    0  0  0  0  0  0  0  0  0  0  0  0
   11.1956   14.2850   21.0460 H    0  0  0  0  0  0  0  0  0  0  0  0
    8.7624   14.3374   20.7679 H    0  0  0  0  0  0  0  0  0  0  0  0
    8.6552   15.9828   21.3158 H    0  0  0  0  0  0  0  0  0  0  0  0
   11.0942   17.2829   21.7351 H    0  0  0  0  0  0  0  0  0  0  0  0
   12.5403   16.2879   21.5743 H    0  0  0  0  0  0  0  0  0  0  0  0
   11.7532   16.6685   23.9953 H    0  0  0  0  0  0  0  0  0  0  0  0
    9.5512   15.6278   24.5908 H    0  0  0  0  0  0  0  0  0  0  0  0
   11.9101   14.3867   24.9337 H    0  0  0  0  0  0  0  0  0  0  0  0
   11.7090   13.6582   23.2847 H    0  0  0  0  0  0  0  0  0  0  0  0
    7.3530   14.3831   25.2369 H    0  0  0  0  0  0  0  0  0  0  0  0
    8.8451   13.5110   25.3876 H    0  0  0  0  0  0  0  0  0  0  0  0
    8.7144    8.8313   22.7746 H    0  0  0  0  0  0  0  0  0  0  0  0
    9.7620    8.4825   24.1723 H    0  0  0  0  0  0  0  0  0  0  0  0
   10.4570    9.1525   22.6942 H    0  0  0  0  0  0  0  0  0  0  0  0
    5.7037   13.1837   26.4011 H    0  0  0  0  0  0  0  0  0  0  0  0
    5.4132    8.9003   26.2150 H    0  0  0  0  0  0  0  0  0  0  0  0
    7.4665    8.7948   24.9184 H    0  0  0  0  0  0  0  0  0  0  0  0
    5.5671   11.9271   29.0679 H    0  0  0  0  0  0  0  0  0  0  0  0
    4.4205   13.0382   28.3569 H    0  0  0  0  0  0  0  0  0  0  0  0
    3.9071   10.8208   30.4224 H    0  0  0  0  0  0  0  0  0  0  0  0
    3.5064   12.5410   30.5156 H    0  0  0  0  0  0  0  0  0  0  0  0
    1.8682   12.2293   28.7669 H    0  0  0  0  0  0  0  0  0  0  0  0
    1.3677   10.3271   31.0150 H    0  0  0  0  0  0  0  0  0  0  0  0
    0.1315   11.0794   29.9671 H    0  0  0  0  0  0  0  0  0  0  0  0
    1.0880   12.0929   31.0482 H    0  0  0  0  0  0  0  0  0  0  0  0
    2.2001    9.2744   28.8333 H    0  0  0  0  0  0  0  0  0  0  0  0
    1.2183   10.2544   27.7432 H    0  0  0  0  0  0  0  0  0  0  0  0
    3.3187    9.5662   26.4910 H    0  0  0  0  0  0  0  0  0  0  0  0
 13 14  1  0  0  0  0
 11 13  1  0  0  0  0
 10 11  1  0  0  0  0
  5 10  1  0  0  0  0
  4  5  1  0  0  0  0
  2  4  1  0  0  0  0
  1  2  2  0  0  0  0
  3  2  1  0  0  0  0
 29  3  1  0  0  0  0
 30  3  1  0  0  0  0
 31  4  1  0  0  0  0
 32  5  1  0  0  0  0
 33  5  1  0  0  0  0
  6  4  1  0  0  0  0
 34  6  1  0  0  0  0
 35  6  1  0  0  0  0
  7  6  1  0  0  0  0
  9  7  1  0  0  0  0
 36  7  1  0  0  0  0
  8  9  1  0  0  0  0
 37  8  1  0  0  0  0
 38  9  1  0  0  0  0
 39  9  1  0  0  0  0
 12 11  2  0  0  0  0
 40 13  1  0  0  0  0
 41 13  1  0  0  0  0
 15 14  1  0  0  0  0
 21 15  2  0  0  0  0
 16 15  1  0  0  0  0
 17 16  1  0  0  0  0
 42 17  1  0  0  0  0
 43 17  1  0  0  0  0
 44 17  1  0  0  0  0
 18 14  2  0  0  0  0
 45 18  1  0  0  0  0
 19 18  1  0  0  0  0
 20 19  2  0  0  0  0
 46 20  1  0  0  0  0
 47 21  1  0  0  0  0
 22 19  1  0  0  0  0
 28 22  2  0  0  0  0
 23 22  1  0  0  0  0
 48 23  1  0  0  0  0
 49 23  1  0  0  0  0
 24 23  1  0  0  0  0
 50 24  1  0  0  0  0
 51 24  1  0  0  0  0
 25 24  1  0  0  0  0
 26 25  1  0  0  0  0
 52 25  1  0  0  0  0
 53 26  1  0  0  0  0
 54 26  1  0  0  0  0
 55 26  1  0  0  0  0
 27 25  1  0  0  0  0
 56 27  1  0  0  0  0
 57 27  1  0  0  0  0
 58 28  1  0  0  0  0
  8  7  1  0  0  0  0
 10  8  1  0  0  0  0
 21 20  1  0  0  0  0
 28 27  1  0  0  0  0
M  CHG  1  25   1
M  END
>  <FittedScore>
-36.55

$$$$
