A71EV2A-x3417a_best-RMSD
  FITTED

 35 36     0  0  0  0  0  0  0999 V2000
    7.4041   12.7049   23.0294 O    0  0  0  0  0  0  0  0  0  0  0  0
    8.2435   13.2141   23.7487 C    0  0  0  0  0  0  0  0  0  0  0  0
    8.6440   12.5907   24.8925 N    0  0  0  0  0  0  0  0  0  0  0  0
    8.1471   11.2999   25.4131 C    0  0  0  0  0  0  0  0  0  0  0  0
    8.8979   10.0735   24.8848 C    0  0  0  0  0  0  0  0  0  0  0  0
    9.6350   10.0117   23.5765 C    0  0  0  0  0  0  0  0  0  0  0  0
   10.4000    9.9938   24.8625 C    0  0  0  0  0  0  0  0  0  0  0  0
    8.9336   14.3446   23.3674 N    0  0  0  0  0  0  0  0  0  0  0  0
    9.9752   15.0868   24.1610 C    0  0  0  0  0  0  0  0  0  0  0  0
   11.3501   15.1624   23.4404 C    0  0  0  0  0  0  0  0  0  0  0  0
   11.2220   15.7240   21.9990 C    0  0  0  0  0  0  0  0  0  0  0  0
    8.7826   14.9644   22.0055 C    0  0  0  0  0  0  0  0  0  0  0  0
   10.1262   14.9439   21.2186 C    0  0  0  0  0  0  0  0  0  0  0  0
   10.0085   15.4309   19.7725 C    0  0  0  0  0  0  0  0  0  0  0  0
    9.4189   16.4324   19.4152 O    0  0  0  0  0  0  0  0  0  0  0  0
   10.5335   14.5930   18.8612 N    0  0  0  0  0  0  0  0  0  0  0  0
    9.4539   12.9577   25.3808 H    0  0  0  0  0  0  0  0  0  0  0  0
    7.0785   11.2060   25.2011 H    0  0  0  0  0  0  0  0  0  0  0  0
    8.2299   11.3353   26.5016 H    0  0  0  0  0  0  0  0  0  0  0  0
    8.3891    9.1592   25.1798 H    0  0  0  0  0  0  0  0  0  0  0  0
    9.5863    9.0891   23.0080 H    0  0  0  0  0  0  0  0  0  0  0  0
    9.7511   10.8965   22.9575 H    0  0  0  0  0  0  0  0  0  0  0  0
   10.8602    9.0582   25.1663 H    0  0  0  0  0  0  0  0  0  0  0  0
   10.9726   10.8778   25.1326 H    0  0  0  0  0  0  0  0  0  0  0  0
    9.6113   16.1010   24.3485 H    0  0  0  0  0  0  0  0  0  0  0  0
   10.1425   14.6702   25.1539 H    0  0  0  0  0  0  0  0  0  0  0  0
   12.0357   15.7871   24.0172 H    0  0  0  0  0  0  0  0  0  0  0  0
   11.7948   14.1628   23.4033 H    0  0  0  0  0  0  0  0  0  0  0  0
   10.9844   16.7918   22.0315 H    0  0  0  0  0  0  0  0  0  0  0  0
   12.1830   15.6293   21.4845 H    0  0  0  0  0  0  0  0  0  0  0  0
    8.4178   15.9909   22.1144 H    0  0  0  0  0  0  0  0  0  0  0  0
    8.0274   14.4651   21.3926 H    0  0  0  0  0  0  0  0  0  0  0  0
   10.4392   13.8895   21.2109 H    0  0  0  0  0  0  0  0  0  0  0  0
   10.8035   13.6547   19.1341 H    0  0  0  0  0  0  0  0  0  0  0  0
   10.5258   14.8354   17.8811 H    0  0  0  0  0  0  0  0  0  0  0  0
  2  8  1  0  0  0  0
  3  2  1  0  0  0  0
 17  3  1  0  0  0  0
  1  2  2  0  0  0  0
  4  3  1  0  0  0  0
 18  4  1  0  0  0  0
 19  4  1  0  0  0  0
  5  4  1  0  0  0  0
  7  5  1  0  0  0  0
 20  5  1  0  0  0  0
  6  5  1  0  0  0  0
 21  6  1  0  0  0  0
 22  6  1  0  0  0  0
 23  7  1  0  0  0  0
 24  7  1  0  0  0  0
  9  8  1  0  0  0  0
 25  9  1  0  0  0  0
 26  9  1  0  0  0  0
 10  9  1  0  0  0  0
 27 10  1  0  0  0  0
 28 10  1  0  0  0  0
 11 10  1  0  0  0  0
 29 11  1  0  0  0  0
 30 11  1  0  0  0  0
 12  8  1  0  0  0  0
 31 12  1  0  0  0  0
 32 12  1  0  0  0  0
 13 11  1  0  0  0  0
 14 13  1  0  0  0  0
 33 13  1  0  0  0  0
 15 14  2  0  0  0  0
 16 14  1  0  0  0  0
 34 16  1  0  0  0  0
 35 16  1  0  0  0  0
  7  6  1  0  0  0  0
 13 12  1  0  0  0  0
M  END
>  <FittedScore>
-29.00

$$$$
