A71EV2A-x3417a_lowest-energy
  FITTED

 35 36     0  0  0  0  0  0  0999 V2000
    7.4224   12.7308   22.9602 O    0  0  0  0  0  0  0  0  0  0  0  0
    8.2750   13.2208   23.6758 C    0  0  0  0  0  0  0  0  0  0  0  0
    8.6595   12.5957   24.8236 N    0  0  0  0  0  0  0  0  0  0  0  0
    8.1166   11.3278   25.3556 C    0  0  0  0  0  0  0  0  0  0  0  0
    8.8979   10.0804   24.9346 C    0  0  0  0  0  0  0  0  0  0  0  0
    9.5776    9.8906   23.6086 C    0  0  0  0  0  0  0  0  0  0  0  0
   10.4003   10.0448   24.8497 C    0  0  0  0  0  0  0  0  0  0  0  0
    8.9702   14.3507   23.3029 N    0  0  0  0  0  0  0  0  0  0  0  0
   10.0284   15.0764   24.0943 C    0  0  0  0  0  0  0  0  0  0  0  0
   11.3895   15.2005   23.3542 C    0  0  0  0  0  0  0  0  0  0  0  0
   11.2297   15.7780   21.9254 C    0  0  0  0  0  0  0  0  0  0  0  0
    8.7999   14.9881   21.9545 C    0  0  0  0  0  0  0  0  0  0  0  0
   10.1439   14.9738   21.1590 C    0  0  0  0  0  0  0  0  0  0  0  0
   10.0286   15.4459   19.7182 C    0  0  0  0  0  0  0  0  0  0  0  0
    9.3669   16.4014   19.3546 O    0  0  0  0  0  0  0  0  0  0  0  0
   10.6500   14.6608   18.8209 N    0  0  0  0  0  0  0  0  0  0  0  0
    9.4730   12.9476   25.3209 H    0  0  0  0  0  0  0  0  0  0  0  0
    7.0639   11.2223   25.0781 H    0  0  0  0  0  0  0  0  0  0  0  0
    8.1248   11.4085   26.4442 H    0  0  0  0  0  0  0  0  0  0  0  0
    8.4320    9.1900   25.3478 H    0  0  0  0  0  0  0  0  0  0  0  0
    9.5282    8.9039   23.1579 H    0  0  0  0  0  0  0  0  0  0  0  0
    9.6014   10.7029   22.8879 H    0  0  0  0  0  0  0  0  0  0  0  0
   10.9066    9.1654   25.2348 H    0  0  0  0  0  0  0  0  0  0  0  0
   10.9606   10.9672   24.9752 H    0  0  0  0  0  0  0  0  0  0  0  0
    9.6559   16.0738   24.3406 H    0  0  0  0  0  0  0  0  0  0  0  0
   10.2342   14.6134   25.0574 H    0  0  0  0  0  0  0  0  0  0  0  0
   12.0699   15.8334   23.9298 H    0  0  0  0  0  0  0  0  0  0  0  0
   11.8575   14.2132   23.2939 H    0  0  0  0  0  0  0  0  0  0  0  0
   10.9529   16.8355   21.9759 H    0  0  0  0  0  0  0  0  0  0  0  0
   12.1869   15.7285   21.4001 H    0  0  0  0  0  0  0  0  0  0  0  0
    8.4258   16.0080   22.0803 H    0  0  0  0  0  0  0  0  0  0  0  0
    8.0337   14.5042   21.3444 H    0  0  0  0  0  0  0  0  0  0  0  0
   10.4742   13.9259   21.1426 H    0  0  0  0  0  0  0  0  0  0  0  0
   10.6390   14.9116   17.8451 H    0  0  0  0  0  0  0  0  0  0  0  0
   11.0137   13.7517   19.1063 H    0  0  0  0  0  0  0  0  0  0  0  0
  2  8  1  0  0  0  0
  3  2  1  0  0  0  0
 17  3  1  0  0  0  0
  1  2  2  0  0  0  0
  4  3  1  0  0  0  0
 18  4  1  0  0  0  0
 19  4  1  0  0  0  0
  5  4  1  0  0  0  0
  7  5  1  0  0  0  0
 20  5  1  0  0  0  0
  6  5  1  0  0  0  0
 21  6  1  0  0  0  0
 22  6  1  0  0  0  0
 23  7  1  0  0  0  0
 24  7  1  0  0  0  0
  9  8  1  0  0  0  0
 25  9  1  0  0  0  0
 26  9  1  0  0  0  0
 10  9  1  0  0  0  0
 27 10  1  0  0  0  0
 28 10  1  0  0  0  0
 11 10  1  0  0  0  0
 29 11  1  0  0  0  0
 30 11  1  0  0  0  0
 12  8  1  0  0  0  0
 31 12  1  0  0  0  0
 32 12  1  0  0  0  0
 13 11  1  0  0  0  0
 14 13  1  0  0  0  0
 33 13  1  0  0  0  0
 15 14  2  0  0  0  0
 16 14  1  0  0  0  0
 34 16  1  0  0  0  0
 35 16  1  0  0  0  0
  7  6  1  0  0  0  0
 13 12  1  0  0  0  0
M  END
>  <FittedScore>
-28.70

$$$$
