A71EV2A-x6819a_lowest-energy
  FITTED

 54 56     0  0  0  0  0  0  0999 V2000
    9.3018    8.7726   23.3842 C    0  0  0  0  0  0  0  0  0  0  0  0
    9.3089   10.5239   23.8602 S    0  0  0  0  0  0  0  0  0  0  0  0
    7.8214   10.8219   24.8226 C    0  0  0  0  0  0  0  0  0  0  0  0
    7.3188    9.7967   25.6470 C    0  0  0  0  0  0  0  0  0  0  0  0
    6.2240   10.0151   26.4869 C    0  0  0  0  0  0  0  0  0  0  0  0
    5.6124   11.2692   26.5195 C    0  0  0  0  0  0  0  0  0  0  0  0
    6.0768   12.2940   25.6866 C    0  0  0  0  0  0  0  0  0  0  0  0
    7.1708   12.0893   24.8060 C    0  0  0  0  0  0  0  0  0  0  0  0
    7.6480   13.2086   23.8341 C    0  0  0  0  0  0  0  0  0  0  0  0
    6.6343   14.2672   23.6170 N    0  0  0  0  0  0  0  0  0  0  0  0
    5.7165   14.2611   22.6237 C    0  0  0  0  0  0  0  0  0  0  0  0
    5.7155   13.4075   21.7553 O    0  0  0  0  0  0  0  0  0  0  0  0
    4.7245   15.4169   22.6271 C    0  0  0  0  0  0  0  0  0  0  0  0
    3.3811   15.0008   22.0223 C    0  0  0  0  0  0  0  0  0  0  0  0
    2.3077   14.6023   22.8460 C    0  0  0  0  0  0  0  0  0  0  0  0
    1.0980   14.1755   22.2732 C    0  0  0  0  0  0  0  0  0  0  0  0
    0.9533   14.1388   20.8769 C    0  0  0  0  0  0  0  0  0  0  0  0
    2.0232   14.5189   20.0536 C    0  0  0  0  0  0  0  0  0  0  0  0
    3.2311   14.9409   20.6222 C    0  0  0  0  0  0  0  0  0  0  0  0
    8.9799   13.8722   24.2031 C    0  0  0  0  0  0  0  0  0  0  0  0
    9.4566   13.6886   25.2996 O    0  0  0  0  0  0  0  0  0  0  0  0
    9.6645   14.6127   23.2673 N    0  0  0  0  0  0  0  0  0  0  0  0
   10.8947   15.3977   23.5414 C    0  0  0  0  0  0  0  0  0  0  0  0
   11.3851   15.9948   22.2053 C    0  0  0  0  0  0  0  0  0  0  0  0
   10.7603   15.0442   21.1753 C    0  0  0  0  0  0  0  0  0  0  0  0
   10.6115   15.5788   19.7597 C    0  0  0  0  0  0  0  0  0  0  0  0
   10.8691   14.6727   18.7994 N    0  0  0  0  0  0  0  0  0  0  0  0
    9.9866   16.5861   19.4946 O    0  0  0  0  0  0  0  0  0  0  0  0
    9.4161   14.6657   21.8114 C    0  0  0  0  0  0  0  0  0  0  0  0
   10.0757    8.6234   22.6303 H    0  0  0  0  0  0  0  0  0  0  0  0
    8.3325    8.5025   22.9625 H    0  0  0  0  0  0  0  0  0  0  0  0
    9.5339    8.1446   24.2474 H    0  0  0  0  0  0  0  0  0  0  0  0
    7.7940    8.8234   25.6849 H    0  0  0  0  0  0  0  0  0  0  0  0
    5.8619    9.2143   27.1270 H    0  0  0  0  0  0  0  0  0  0  0  0
    4.7683   11.4420   27.1838 H    0  0  0  0  0  0  0  0  0  0  0  0
    5.5621   13.2498   25.7416 H    0  0  0  0  0  0  0  0  0  0  0  0
    7.8041   12.6884   22.8895 H    0  0  0  0  0  0  0  0  0  0  0  0
    6.6277   15.0279   24.2924 H    0  0  0  0  0  0  0  0  0  0  0  0
    5.1529   16.2438   22.0512 H    0  0  0  0  0  0  0  0  0  0  0  0
    4.5773   15.8039   23.6397 H    0  0  0  0  0  0  0  0  0  0  0  0
    2.4001   14.6191   23.9287 H    0  0  0  0  0  0  0  0  0  0  0  0
    0.2759   13.8713   22.9127 H    0  0  0  0  0  0  0  0  0  0  0  0
    0.0179   13.8087   20.4350 H    0  0  0  0  0  0  0  0  0  0  0  0
    1.9273   14.4819   18.9727 H    0  0  0  0  0  0  0  0  0  0  0  0
    4.0593   15.2182   19.9696 H    0  0  0  0  0  0  0  0  0  0  0  0
   11.6656   14.7458   23.9661 H    0  0  0  0  0  0  0  0  0  0  0  0
   10.6834   16.1939   24.2615 H    0  0  0  0  0  0  0  0  0  0  0  0
   12.4774   16.0107   22.1441 H    0  0  0  0  0  0  0  0  0  0  0  0
   11.0116   17.0168   22.0859 H    0  0  0  0  0  0  0  0  0  0  0  0
   11.3880   14.1468   21.1644 H    0  0  0  0  0  0  0  0  0  0  0  0
   10.7486   14.9299   17.8300 H    0  0  0  0  0  0  0  0  0  0  0  0
   11.0331   13.6968   19.0521 H    0  0  0  0  0  0  0  0  0  0  0  0
    9.0956   13.7065   21.4005 H    0  0  0  0  0  0  0  0  0  0  0  0
    8.6379   15.4021   21.5972 H    0  0  0  0  0  0  0  0  0  0  0  0
  8  9  1  0  0  0  0
  7  8  2  0  0  0  0
  6  7  1  0  0  0  0
  5  6  2  0  0  0  0
  4  5  1  0  0  0  0
  3  4  2  0  0  0  0
  2  3  1  0  0  0  0
  1  2  1  0  0  0  0
 30  1  1  0  0  0  0
 31  1  1  0  0  0  0
 32  1  1  0  0  0  0
 33  4  1  0  0  0  0
 34  5  1  0  0  0  0
 35  6  1  0  0  0  0
 36  7  1  0  0  0  0
 10  9  1  0  0  0  0
 20  9  1  0  0  0  0
 37  9  1  0  0  0  0
 11 10  1  0  0  0  0
 38 10  1  0  0  0  0
 12 11  2  0  0  0  0
 13 11  1  0  0  0  0
 14 13  1  0  0  0  0
 39 13  1  0  0  0  0
 40 13  1  0  0  0  0
 15 14  2  0  0  0  0
 16 15  1  0  0  0  0
 41 15  1  0  0  0  0
 17 16  2  0  0  0  0
 42 16  1  0  0  0  0
 18 17  1  0  0  0  0
 43 17  1  0  0  0  0
 19 18  2  0  0  0  0
 44 18  1  0  0  0  0
 45 19  1  0  0  0  0
 21 20  2  0  0  0  0
 22 20  1  0  0  0  0
 23 22  1  0  0  0  0
 24 23  1  0  0  0  0
 46 23  1  0  0  0  0
 47 23  1  0  0  0  0
 25 24  1  0  0  0  0
 48 24  1  0  0  0  0
 49 24  1  0  0  0  0
 26 25  1  0  0  0  0
 29 25  1  0  0  0  0
 50 25  1  0  0  0  0
 27 26  1  0  0  0  0
 28 26  2  0  0  0  0
 51 27  1  0  0  0  0
 52 27  1  0  0  0  0
 53 29  1  0  0  0  0
 54 29  1  0  0  0  0
  8  3  1  0  0  0  0
 19 14  1  0  0  0  0
 29 22  1  0  0  0  0
M  END
>  <FittedScore>
-36.72

$$$$
