A71EV2A-x6851a_lowest-energy
  FITTED

 54 55     0  0  0  0  0  0  0999 V2000
    9.3536    8.6786   23.7063 C    0  0  0  0  0  0  0  0  0  0  0  0
    9.1828   10.4636   23.9985 S    0  0  0  0  0  0  0  0  0  0  0  0
    7.7334   10.7475   25.0411 C    0  0  0  0  0  0  0  0  0  0  0  0
    6.9050    9.6699   25.4205 C    0  0  0  0  0  0  0  0  0  0  0  0
    5.8081    9.8552   26.2658 C    0  0  0  0  0  0  0  0  0  0  0  0
    5.4808   11.1324   26.7150 C    0  0  0  0  0  0  0  0  0  0  0  0
    6.2533   12.2237   26.3169 C    0  0  0  0  0  0  0  0  0  0  0  0
    7.4022   12.0573   25.4997 C    0  0  0  0  0  0  0  0  0  0  0  0
    8.2173   13.2957   25.0233 C    0  0  0  0  0  0  0  0  0  0  0  0
    8.0321   14.4576   25.9095 N    0  0  0  0  0  0  0  0  0  0  0  0
    8.7906   14.8152   26.9565 C    0  0  0  0  0  0  0  0  0  0  0  0
    9.8035   14.2115   27.2630 O    0  0  0  0  0  0  0  0  0  0  0  0
    8.2659   15.8804   27.6286 O    0  0  0  0  0  0  0  0  0  0  0  0
    8.7934   16.4634   28.8625 C    0  0  0  0  0  0  0  0  0  0  0  0
    8.0004   17.7885   29.0573 C    0  0  0  0  0  0  0  0  0  0  0  0
    8.5321   15.5017   30.0612 C    0  0  0  0  0  0  0  0  0  0  0  0
   10.3053   16.7874   28.6988 C    0  0  0  0  0  0  0  0  0  0  0  0
    7.8961   13.6812   23.5688 C    0  0  0  0  0  0  0  0  0  0  0  0
    6.9054   13.2346   23.0071 O    0  0  0  0  0  0  0  0  0  0  0  0
    8.8001   14.4608   22.8838 N    0  0  0  0  0  0  0  0  0  0  0  0
   10.0274   15.1269   23.4033 C    0  0  0  0  0  0  0  0  0  0  0  0
   10.7716   15.7617   22.2097 C    0  0  0  0  0  0  0  0  0  0  0  0
   10.2137   14.9715   21.0212 C    0  0  0  0  0  0  0  0  0  0  0  0
   10.3490   15.6100   19.6459 C    0  0  0  0  0  0  0  0  0  0  0  0
   10.9164   14.8329   18.7022 N    0  0  0  0  0  0  0  0  0  0  0  0
    9.7645   16.6225   19.3173 O    0  0  0  0  0  0  0  0  0  0  0  0
    8.7654   14.6605   21.4283 C    0  0  0  0  0  0  0  0  0  0  0  0
    9.4407    8.1484   24.6534 H    0  0  0  0  0  0  0  0  0  0  0  0
   10.2572    8.4991   23.1207 H    0  0  0  0  0  0  0  0  0  0  0  0
    8.4820    8.3194   23.1520 H    0  0  0  0  0  0  0  0  0  0  0  0
    7.1076    8.6543   25.0985 H    0  0  0  0  0  0  0  0  0  0  0  0
    5.2006    9.0030   26.5657 H    0  0  0  0  0  0  0  0  0  0  0  0
    4.6217   11.2918   27.3595 H    0  0  0  0  0  0  0  0  0  0  0  0
    5.9298   13.2046   26.6574 H    0  0  0  0  0  0  0  0  0  0  0  0
    9.2745   13.0293   25.0769 H    0  0  0  0  0  0  0  0  0  0  0  0
    7.1571   14.9445   25.7890 H    0  0  0  0  0  0  0  0  0  0  0  0
    6.9259   17.6045   29.1476 H    0  0  0  0  0  0  0  0  0  0  0  0
    8.1520   18.4698   28.2144 H    0  0  0  0  0  0  0  0  0  0  0  0
    8.3205   18.3109   29.9608 H    0  0  0  0  0  0  0  0  0  0  0  0
    8.8167   15.9697   31.0057 H    0  0  0  0  0  0  0  0  0  0  0  0
    9.1069   14.5755   29.9852 H    0  0  0  0  0  0  0  0  0  0  0  0
    7.4754   15.2299   30.1282 H    0  0  0  0  0  0  0  0  0  0  0  0
   10.9470   15.9166   28.8610 H    0  0  0  0  0  0  0  0  0  0  0  0
   10.6317   17.5349   29.4268 H    0  0  0  0  0  0  0  0  0  0  0  0
   10.5262   17.1857   27.7027 H    0  0  0  0  0  0  0  0  0  0  0  0
   10.6870   14.4069   23.8893 H    0  0  0  0  0  0  0  0  0  0  0  0
    9.7723   15.8970   24.1334 H    0  0  0  0  0  0  0  0  0  0  0  0
   11.8549   15.6414   22.3041 H    0  0  0  0  0  0  0  0  0  0  0  0
   10.5395   16.8279   22.1285 H    0  0  0  0  0  0  0  0  0  0  0  0
   10.7496   14.0114   21.0032 H    0  0  0  0  0  0  0  0  0  0  0  0
   11.1351   13.8566   18.9038 H    0  0  0  0  0  0  0  0  0  0  0  0
   10.9537   15.1538   17.7413 H    0  0  0  0  0  0  0  0  0  0  0  0
    8.4128   13.7736   20.8890 H    0  0  0  0  0  0  0  0  0  0  0  0
    8.0843   15.4913   21.2011 H    0  0  0  0  0  0  0  0  0  0  0  0
  8  9  1  0  0  0  0
  7  8  2  0  0  0  0
  6  7  1  0  0  0  0
  5  6  2  0  0  0  0
  4  5  1  0  0  0  0
  3  4  2  0  0  0  0
  2  3  1  0  0  0  0
  1  2  1  0  0  0  0
 28  1  1  0  0  0  0
 29  1  1  0  0  0  0
 30  1  1  0  0  0  0
 31  4  1  0  0  0  0
 32  5  1  0  0  0  0
 33  6  1  0  0  0  0
 34  7  1  0  0  0  0
 10  9  1  0  0  0  0
 18  9  1  0  0  0  0
 35  9  1  0  0  0  0
 11 10  1  0  0  0  0
 36 10  1  0  0  0  0
 12 11  2  0  0  0  0
 13 11  1  0  0  0  0
 14 13  1  0  0  0  0
 15 14  1  0  0  0  0
 16 14  1  0  0  0  0
 17 14  1  0  0  0  0
 37 15  1  0  0  0  0
 38 15  1  0  0  0  0
 39 15  1  0  0  0  0
 40 16  1  0  0  0  0
 41 16  1  0  0  0  0
 42 16  1  0  0  0  0
 43 17  1  0  0  0  0
 44 17  1  0  0  0  0
 45 17  1  0  0  0  0
 19 18  2  0  0  0  0
 20 18  1  0  0  0  0
 21 20  1  0  0  0  0
 22 21  1  0  0  0  0
 46 21  1  0  0  0  0
 47 21  1  0  0  0  0
 23 22  1  0  0  0  0
 48 22  1  0  0  0  0
 49 22  1  0  0  0  0
 24 23  1  0  0  0  0
 27 23  1  0  0  0  0
 50 23  1  0  0  0  0
 25 24  1  0  0  0  0
 26 24  2  0  0  0  0
 51 25  1  0  0  0  0
 52 25  1  0  0  0  0
 53 27  1  0  0  0  0
 54 27  1  0  0  0  0
  8  3  1  0  0  0  0
 27 20  1  0  0  0  0
M  END
>  <FittedScore>
-37.97

$$$$
