A71EV2A-x6851a_best-RMSD
  FITTED

 54 55     0  0  0  0  0  0  0999 V2000
    9.6674    8.7190   23.8601 C    0  0  0  0  0  0  0  0  0  0  0  0
    9.3032   10.4990   24.0034 S    0  0  0  0  0  0  0  0  0  0  0  0
    7.8361   10.7253   25.0332 C    0  0  0  0  0  0  0  0  0  0  0  0
    7.0413    9.6195   25.3964 C    0  0  0  0  0  0  0  0  0  0  0  0
    5.9195    9.7735   26.2167 C    0  0  0  0  0  0  0  0  0  0  0  0
    5.5387   11.0383   26.6560 C    0  0  0  0  0  0  0  0  0  0  0  0
    6.2810   12.1554   26.2678 C    0  0  0  0  0  0  0  0  0  0  0  0
    7.4478   12.0259   25.4713 C    0  0  0  0  0  0  0  0  0  0  0  0
    8.2322   13.2903   25.0186 C    0  0  0  0  0  0  0  0  0  0  0  0
    8.0164   14.4513   25.9060 N    0  0  0  0  0  0  0  0  0  0  0  0
    8.7603   14.7707   26.9791 C    0  0  0  0  0  0  0  0  0  0  0  0
    9.7634   14.1465   27.2712 O    0  0  0  0  0  0  0  0  0  0  0  0
    8.2762   15.8321   27.6834 O    0  0  0  0  0  0  0  0  0  0  0  0
    8.9734   16.4348   28.8254 C    0  0  0  0  0  0  0  0  0  0  0  0
   10.4221   16.7912   28.3828 C    0  0  0  0  0  0  0  0  0  0  0  0
    8.1821   17.7331   29.1489 C    0  0  0  0  0  0  0  0  0  0  0  0
    8.9440   15.5020   30.0803 C    0  0  0  0  0  0  0  0  0  0  0  0
    7.9343   13.6838   23.5626 C    0  0  0  0  0  0  0  0  0  0  0  0
    6.9436   13.2427   22.9969 O    0  0  0  0  0  0  0  0  0  0  0  0
    8.8687   14.4194   22.8717 N    0  0  0  0  0  0  0  0  0  0  0  0
   10.1198   15.0553   23.3789 C    0  0  0  0  0  0  0  0  0  0  0  0
   10.8384   15.7353   22.1913 C    0  0  0  0  0  0  0  0  0  0  0  0
   10.2601   14.9792   20.9915 C    0  0  0  0  0  0  0  0  0  0  0  0
   10.3676   15.6314   19.6138 C    0  0  0  0  0  0  0  0  0  0  0  0
   10.9894   14.8942   18.6779 N    0  0  0  0  0  0  0  0  0  0  0  0
    9.7331   16.6079   19.2692 O    0  0  0  0  0  0  0  0  0  0  0  0
    8.8256   14.6413   21.4153 C    0  0  0  0  0  0  0  0  0  0  0  0
    9.7727    8.2863   24.8583 H    0  0  0  0  0  0  0  0  0  0  0  0
   10.6060    8.6034   23.3197 H    0  0  0  0  0  0  0  0  0  0  0  0
    8.8742    8.2096   23.3064 H    0  0  0  0  0  0  0  0  0  0  0  0
    7.2680    8.6164   25.0549 H    0  0  0  0  0  0  0  0  0  0  0  0
    5.3315    8.9026   26.4976 H    0  0  0  0  0  0  0  0  0  0  0  0
    4.6608   11.1614   27.2863 H    0  0  0  0  0  0  0  0  0  0  0  0
    5.9198   13.1223   26.6038 H    0  0  0  0  0  0  0  0  0  0  0  0
    9.2896   13.0378   25.0914 H    0  0  0  0  0  0  0  0  0  0  0  0
    7.1777   14.9908   25.7193 H    0  0  0  0  0  0  0  0  0  0  0  0
   10.4395   17.1681   27.3574 H    0  0  0  0  0  0  0  0  0  0  0  0
   11.1120   15.9465   28.4296 H    0  0  0  0  0  0  0  0  0  0  0  0
   10.8518   17.5578   29.0327 H    0  0  0  0  0  0  0  0  0  0  0  0
    8.6112   18.2568   30.0058 H    0  0  0  0  0  0  0  0  0  0  0  0
    7.1395   17.5117   29.3906 H    0  0  0  0  0  0  0  0  0  0  0  0
    8.1880   18.4267   28.3053 H    0  0  0  0  0  0  0  0  0  0  0  0
    9.5748   14.6190   29.9607 H    0  0  0  0  0  0  0  0  0  0  0  0
    7.9289   15.1599   30.2953 H    0  0  0  0  0  0  0  0  0  0  0  0
    9.3135   16.0199   30.9693 H    0  0  0  0  0  0  0  0  0  0  0  0
   10.7812   14.2980   23.8113 H    0  0  0  0  0  0  0  0  0  0  0  0
    9.8914   15.7889   24.1566 H    0  0  0  0  0  0  0  0  0  0  0  0
   11.9245   15.6140   22.2559 H    0  0  0  0  0  0  0  0  0  0  0  0
   10.6039   16.8023   22.1455 H    0  0  0  0  0  0  0  0  0  0  0  0
   10.8032   14.0238   20.9539 H    0  0  0  0  0  0  0  0  0  0  0  0
   10.9464   15.1803   17.7008 H    0  0  0  0  0  0  0  0  0  0  0  0
   11.2867   13.9522   18.9005 H    0  0  0  0  0  0  0  0  0  0  0  0
    8.4809   13.7591   20.8635 H    0  0  0  0  0  0  0  0  0  0  0  0
    8.1367   15.4659   21.2055 H    0  0  0  0  0  0  0  0  0  0  0  0
  8  9  1  0  0  0  0
  7  8  2  0  0  0  0
  6  7  1  0  0  0  0
  5  6  2  0  0  0  0
  4  5  1  0  0  0  0
  3  4  2  0  0  0  0
  2  3  1  0  0  0  0
  1  2  1  0  0  0  0
 28  1  1  0  0  0  0
 29  1  1  0  0  0  0
 30  1  1  0  0  0  0
 31  4  1  0  0  0  0
 32  5  1  0  0  0  0
 33  6  1  0  0  0  0
 34  7  1  0  0  0  0
 10  9  1  0  0  0  0
 18  9  1  0  0  0  0
 35  9  1  0  0  0  0
 11 10  1  0  0  0  0
 36 10  1  0  0  0  0
 12 11  2  0  0  0  0
 13 11  1  0  0  0  0
 14 13  1  0  0  0  0
 15 14  1  0  0  0  0
 16 14  1  0  0  0  0
 17 14  1  0  0  0  0
 37 15  1  0  0  0  0
 38 15  1  0  0  0  0
 39 15  1  0  0  0  0
 40 16  1  0  0  0  0
 41 16  1  0  0  0  0
 42 16  1  0  0  0  0
 43 17  1  0  0  0  0
 44 17  1  0  0  0  0
 45 17  1  0  0  0  0
 19 18  2  0  0  0  0
 20 18  1  0  0  0  0
 21 20  1  0  0  0  0
 22 21  1  0  0  0  0
 46 21  1  0  0  0  0
 47 21  1  0  0  0  0
 23 22  1  0  0  0  0
 48 22  1  0  0  0  0
 49 22  1  0  0  0  0
 24 23  1  0  0  0  0
 27 23  1  0  0  0  0
 50 23  1  0  0  0  0
 25 24  1  0  0  0  0
 26 24  2  0  0  0  0
 51 25  1  0  0  0  0
 52 25  1  0  0  0  0
 53 27  1  0  0  0  0
 54 27  1  0  0  0  0
  8  3  1  0  0  0  0
 27 20  1  0  0  0  0
M  END
>  <FittedScore>
-37.72

$$$$
