A71EV2A-x7533a_lowest-energy
  FITTED

 53 55     0  0  0  0  0  0  0999 V2000
    9.6950   16.8742   19.2912 O    0  0  0  0  0  0  0  0  0  0  0  0
   10.1425   15.8121   19.6825 C    0  0  0  0  0  0  0  0  0  0  0  0
   10.6375   14.8961   18.8306 N    0  0  0  0  0  0  0  0  0  0  0  0
   10.1248   15.3760   21.1367 C    0  0  0  0  0  0  0  0  0  0  0  0
   11.0850   16.2622   21.9762 C    0  0  0  0  0  0  0  0  0  0  0  0
   11.0265   15.8578   23.4704 C    0  0  0  0  0  0  0  0  0  0  0  0
    9.5619   15.7741   23.9916 C    0  0  0  0  0  0  0  0  0  0  0  0
    8.6828   15.3634   21.7303 C    0  0  0  0  0  0  0  0  0  0  0  0
    8.6769   14.8929   23.1509 N    0  0  0  0  0  0  0  0  0  0  0  0
    7.9985   13.7605   23.5649 C    0  0  0  0  0  0  0  0  0  0  0  0
    7.2899   13.1279   22.7938 O    0  0  0  0  0  0  0  0  0  0  0  0
    8.2561   13.2218   24.9802 C    0  0  0  0  0  0  0  0  0  0  0  0
    7.4673   11.9457   25.3469 C    0  0  0  0  0  0  0  0  0  0  0  0
    7.8890   10.6584   24.9020 C    0  0  0  0  0  0  0  0  0  0  0  0
    9.3056   10.4591   23.8373 S    0  0  0  0  0  0  0  0  0  0  0  0
    9.4018    8.6894   23.4325 C    0  0  0  0  0  0  0  0  0  0  0  0
    6.2787   11.9988   26.1315 C    0  0  0  0  0  0  0  0  0  0  0  0
    5.6528   10.8491   26.5053 N    0  0  0  0  0  0  0  0  0  0  0  0
    6.1431    9.6614   26.0765 C    0  0  0  0  0  0  0  0  0  0  0  0
    7.2163    9.5295   25.2621 N    0  0  0  0  0  0  0  0  0  0  0  0
    5.6695   13.1871   26.5126 N    0  0  0  0  0  0  0  0  0  0  0  0
    5.1931   13.4741   27.8821 C    0  0  0  0  0  0  0  0  0  0  0  0
    6.2215   14.3608   28.6303 C    0  0  0  0  0  0  0  0  0  0  0  0
    3.8239   14.1682   27.6749 C    0  0  0  0  0  0  0  0  0  0  0  0
    3.7627   14.6085   26.1976 C    0  0  0  0  0  0  0  0  0  0  0  0
    5.0351   14.0710   25.5197 C    0  0  0  0  0  0  0  0  0  0  0  0
   10.8528   13.9575   19.1670 H    0  0  0  0  0  0  0  0  0  0  0  0
   10.6391   15.0881   17.8378 H    0  0  0  0  0  0  0  0  0  0  0  0
   10.4969   14.3455   21.2162 H    0  0  0  0  0  0  0  0  0  0  0  0
   12.1073   16.1433   21.6106 H    0  0  0  0  0  0  0  0  0  0  0  0
   10.8278   17.3216   21.8712 H    0  0  0  0  0  0  0  0  0  0  0  0
   11.5304   14.8941   23.6079 H    0  0  0  0  0  0  0  0  0  0  0  0
   11.5863   16.5912   24.0598 H    0  0  0  0  0  0  0  0  0  0  0  0
    9.6121   15.4861   25.0408 H    0  0  0  0  0  0  0  0  0  0  0  0
    9.1344   16.7824   24.0077 H    0  0  0  0  0  0  0  0  0  0  0  0
    8.0535   14.7506   21.0811 H    0  0  0  0  0  0  0  0  0  0  0  0
    8.2396   16.3641   21.6874 H    0  0  0  0  0  0  0  0  0  0  0  0
    9.3264   13.0349   25.0939 H    0  0  0  0  0  0  0  0  0  0  0  0
    8.0493   14.0010   25.7174 H    0  0  0  0  0  0  0  0  0  0  0  0
    9.5454    8.1081   24.3443 H    0  0  0  0  0  0  0  0  0  0  0  0
   10.2477    8.5071   22.7676 H    0  0  0  0  0  0  0  0  0  0  0  0
    8.4870    8.3739   22.9273 H    0  0  0  0  0  0  0  0  0  0  0  0
    5.6275    8.7568   26.3882 H    0  0  0  0  0  0  0  0  0  0  0  0
    5.0386   12.5717   28.4806 H    0  0  0  0  0  0  0  0  0  0  0  0
    6.3505   15.3315   28.1410 H    0  0  0  0  0  0  0  0  0  0  0  0
    7.1982   13.8710   28.6668 H    0  0  0  0  0  0  0  0  0  0  0  0
    5.8975   14.5396   29.6609 H    0  0  0  0  0  0  0  0  0  0  0  0
    3.0126   13.4624   27.8864 H    0  0  0  0  0  0  0  0  0  0  0  0
    3.6829   15.0276   28.3423 H    0  0  0  0  0  0  0  0  0  0  0  0
    2.8680   14.2029   25.7166 H    0  0  0  0  0  0  0  0  0  0  0  0
    3.7187   15.6987   26.1186 H    0  0  0  0  0  0  0  0  0  0  0  0
    4.7721   13.5381   24.5995 H    0  0  0  0  0  0  0  0  0  0  0  0
    5.6878   14.9015   25.2420 H    0  0  0  0  0  0  0  0  0  0  0  0
  9 10  1  0  0  0  0
  7  9  1  0  0  0  0
  6  7  1  0  0  0  0
  5  6  1  0  0  0  0
  4  5  1  0  0  0  0
  2  4  1  0  0  0  0
  1  2  2  0  0  0  0
  3  2  1  0  0  0  0
 27  3  1  0  0  0  0
 28  3  1  0  0  0  0
 29  4  1  0  0  0  0
 30  5  1  0  0  0  0
 31  5  1  0  0  0  0
 32  6  1  0  0  0  0
 33  6  1  0  0  0  0
 34  7  1  0  0  0  0
 35  7  1  0  0  0  0
  8  4  1  0  0  0  0
 36  8  1  0  0  0  0
 37  8  1  0  0  0  0
 11 10  2  0  0  0  0
 12 10  1  0  0  0  0
 38 12  1  0  0  0  0
 39 12  1  0  0  0  0
 13 12  1  0  0  0  0
 14 13  1  0  0  0  0
 20 14  2  0  0  0  0
 15 14  1  0  0  0  0
 16 15  1  0  0  0  0
 40 16  1  0  0  0  0
 41 16  1  0  0  0  0
 42 16  1  0  0  0  0
 17 13  2  0  0  0  0
 18 17  1  0  0  0  0
 19 18  2  0  0  0  0
 43 19  1  0  0  0  0
 21 17  1  0  0  0  0
 26 21  1  0  0  0  0
 22 21  1  0  0  0  0
 23 22  1  0  0  0  0
 44 22  1  0  0  0  0
 45 23  1  0  0  0  0
 46 23  1  0  0  0  0
 47 23  1  0  0  0  0
 24 22  1  0  0  0  0
 48 24  1  0  0  0  0
 49 24  1  0  0  0  0
 25 24  1  0  0  0  0
 50 25  1  0  0  0  0
 51 25  1  0  0  0  0
 52 26  1  0  0  0  0
 53 26  1  0  0  0  0
  9  8  1  0  0  0  0
 20 19  1  0  0  0  0
 26 25  1  0  0  0  0
M  END
>  <FittedScore>
-36.65

$$$$
