A71EV2A-x4644a_lowest-energy
  FITTED

 36 37     0  0  0  0  0  0  0999 V2000
    9.0719   10.1169   24.5317 BR   0  0  0  0  0  0  0  0  0  0  0  0
    7.6735   11.0037   25.5213 C    0  0  0  0  0  0  0  0  0  0  0  0
    6.6276   10.2150   26.0537 C    0  0  0  0  0  0  0  0  0  0  0  0
    6.5100    8.9109   25.7504 F    0  0  0  0  0  0  0  0  0  0  0  0
    5.6645   10.7864   26.9025 C    0  0  0  0  0  0  0  0  0  0  0  0
    4.7728   10.0142   27.5457 F    0  0  0  0  0  0  0  0  0  0  0  0
    5.6709   12.1600   27.1541 C    0  0  0  0  0  0  0  0  0  0  0  0
    6.6516   12.9651   26.5705 C    0  0  0  0  0  0  0  0  0  0  0  0
    7.6700   12.4080   25.7668 C    0  0  0  0  0  0  0  0  0  0  0  0
    8.6898   13.3941   25.1814 C    0  0  0  0  0  0  0  0  0  0  0  0
    8.3987   13.8339   23.7367 C    0  0  0  0  0  0  0  0  0  0  0  0
    7.5730   13.2344   23.0594 O    0  0  0  0  0  0  0  0  0  0  0  0
    9.1271   14.8821   23.2087 N    0  0  0  0  0  0  0  0  0  0  0  0
   10.1266   15.7563   23.9259 C    0  0  0  0  0  0  0  0  0  0  0  0
   11.5242   15.7729   23.2570 C    0  0  0  0  0  0  0  0  0  0  0  0
   11.4398   16.1844   21.7688 C    0  0  0  0  0  0  0  0  0  0  0  0
    8.9909   15.3322   21.7847 C    0  0  0  0  0  0  0  0  0  0  0  0
   10.3613   15.3442   21.0280 C    0  0  0  0  0  0  0  0  0  0  0  0
   10.2217   15.8141   19.5858 C    0  0  0  0  0  0  0  0  0  0  0  0
    9.6900   16.8596   19.2630 O    0  0  0  0  0  0  0  0  0  0  0  0
   10.6293   14.9206   18.6663 N    0  0  0  0  0  0  0  0  0  0  0  0
    4.9228   12.6078   27.8047 H    0  0  0  0  0  0  0  0  0  0  0  0
    6.6171   14.0378   26.7625 H    0  0  0  0  0  0  0  0  0  0  0  0
    8.6995   14.2683   25.8358 H    0  0  0  0  0  0  0  0  0  0  0  0
    9.7041   12.9939   25.2487 H    0  0  0  0  0  0  0  0  0  0  0  0
    9.7282   16.7761   23.9702 H    0  0  0  0  0  0  0  0  0  0  0  0
   10.2974   15.4892   24.9638 H    0  0  0  0  0  0  0  0  0  0  0  0
   12.1838   16.4668   23.7856 H    0  0  0  0  0  0  0  0  0  0  0  0
   11.9742   14.7783   23.3410 H    0  0  0  0  0  0  0  0  0  0  0  0
   11.2211   17.2521   21.6925 H    0  0  0  0  0  0  0  0  0  0  0  0
   12.4173   16.0303   21.2954 H    0  0  0  0  0  0  0  0  0  0  0  0
    8.5324   16.3295   21.7735 H    0  0  0  0  0  0  0  0  0  0  0  0
    8.3009   14.7102   21.2044 H    0  0  0  0  0  0  0  0  0  0  0  0
   10.7146   14.3050   21.0399 H    0  0  0  0  0  0  0  0  0  0  0  0
   10.8734   13.9711   18.9292 H    0  0  0  0  0  0  0  0  0  0  0  0
   10.6642   15.1971   17.6976 H    0  0  0  0  0  0  0  0  0  0  0  0
 10 11  1  0  0  0  0
  9 10  1  0  0  0  0
  8  9  2  0  0  0  0
  7  8  1  0  0  0  0
  5  7  2  0  0  0  0
  3  5  1  0  0  0  0
  2  3  2  0  0  0  0
  1  2  1  0  0  0  0
  4  3  1  0  0  0  0
  6  5  1  0  0  0  0
 22  7  1  0  0  0  0
 23  8  1  0  0  0  0
 24 10  1  0  0  0  0
 25 10  1  0  0  0  0
 12 11  2  0  0  0  0
 13 11  1  0  0  0  0
 14 13  1  0  0  0  0
 26 14  1  0  0  0  0
 27 14  1  0  0  0  0
 15 14  1  0  0  0  0
 28 15  1  0  0  0  0
 29 15  1  0  0  0  0
 16 15  1  0  0  0  0
 30 16  1  0  0  0  0
 31 16  1  0  0  0  0
 17 13  1  0  0  0  0
 32 17  1  0  0  0  0
 33 17  1  0  0  0  0
 18 16  1  0  0  0  0
 19 18  1  0  0  0  0
 34 18  1  0  0  0  0
 20 19  2  0  0  0  0
 21 19  1  0  0  0  0
 35 21  1  0  0  0  0
 36 21  1  0  0  0  0
  9  2  1  0  0  0  0
 18 17  1  0  0  0  0
M  END
>  <FittedScore>
-29.86

$$$$
