A71EV2A-x5599b_lowest-energy
  FITTED

 44 46     0  0  0  0  0  0  0999 V2000
    9.9046   16.8948   19.2160 O    0  0  0  0  0  0  0  0  0  0  0  0
   10.3945   15.8434   19.5914 C    0  0  0  0  0  0  0  0  0  0  0  0
   10.7811   14.9024   18.7096 N    0  0  0  0  0  0  0  0  0  0  0  0
   10.3861   15.3861   21.0395 C    0  0  0  0  0  0  0  0  0  0  0  0
   11.2934   16.2904   21.9190 C    0  0  0  0  0  0  0  0  0  0  0  0
   11.2433   15.8228   23.3958 C    0  0  0  0  0  0  0  0  0  0  0  0
    9.7820   15.6381   23.9071 C    0  0  0  0  0  0  0  0  0  0  0  0
    8.9350   15.3204   21.6001 C    0  0  0  0  0  0  0  0  0  0  0  0
    8.9012   14.8129   23.0066 N    0  0  0  0  0  0  0  0  0  0  0  0
    8.1508   13.7294   23.3999 C    0  0  0  0  0  0  0  0  0  0  0  0
    7.4411   13.1157   22.6200 O    0  0  0  0  0  0  0  0  0  0  0  0
    8.2961   13.3295   24.6970 O    0  0  0  0  0  0  0  0  0  0  0  0
    7.8561   12.0986   25.1487 C    0  0  0  0  0  0  0  0  0  0  0  0
    6.7606   12.0010   26.0359 C    0  0  0  0  0  0  0  0  0  0  0  0
    6.0933   13.2621   26.5829 C    0  0  0  0  0  0  0  0  0  0  0  0
    8.4775   10.9283   24.6832 C    0  0  0  0  0  0  0  0  0  0  0  0
    9.6814   10.7982   23.7759 C    0  0  0  0  0  0  0  0  0  0  0  0
    9.8945    9.2812   23.5626 C    0  0  0  0  0  0  0  0  0  0  0  0
    8.7043    8.6042   24.2658 C    0  0  0  0  0  0  0  0  0  0  0  0
    7.9582    9.6882   24.9951 C    0  0  0  0  0  0  0  0  0  0  0  0
    6.8525    9.5602   25.8464 C    0  0  0  0  0  0  0  0  0  0  0  0
    6.2682   10.7204   26.3828 C    0  0  0  0  0  0  0  0  0  0  0  0
   10.9689   13.9529   19.0250 H    0  0  0  0  0  0  0  0  0  0  0  0
   10.7538   15.1069   17.7177 H    0  0  0  0  0  0  0  0  0  0  0  0
   10.7931   14.3674   21.1071 H    0  0  0  0  0  0  0  0  0  0  0  0
   12.3233   16.2455   21.5536 H    0  0  0  0  0  0  0  0  0  0  0  0
   10.9762   17.3364   21.8539 H    0  0  0  0  0  0  0  0  0  0  0  0
   11.7903   14.8800   23.4938 H    0  0  0  0  0  0  0  0  0  0  0  0
   11.7612   16.5568   24.0189 H    0  0  0  0  0  0  0  0  0  0  0  0
    9.8511   15.2255   24.9136 H    0  0  0  0  0  0  0  0  0  0  0  0
    9.3221   16.6240   24.0279 H    0  0  0  0  0  0  0  0  0  0  0  0
    8.3397   14.7089   20.9164 H    0  0  0  0  0  0  0  0  0  0  0  0
    8.4667   16.3110   21.5727 H    0  0  0  0  0  0  0  0  0  0  0  0
    5.5664   13.7846   25.7803 H    0  0  0  0  0  0  0  0  0  0  0  0
    6.8437   13.9424   26.9933 H    0  0  0  0  0  0  0  0  0  0  0  0
    5.3764   13.0436   27.3759 H    0  0  0  0  0  0  0  0  0  0  0  0
   10.5620   11.2571   24.2345 H    0  0  0  0  0  0  0  0  0  0  0  0
    9.5160   11.2782   22.8092 H    0  0  0  0  0  0  0  0  0  0  0  0
   10.8424    8.9598   24.0042 H    0  0  0  0  0  0  0  0  0  0  0  0
    9.9129    9.0310   22.4981 H    0  0  0  0  0  0  0  0  0  0  0  0
    9.0557    7.8468   24.9719 H    0  0  0  0  0  0  0  0  0  0  0  0
    8.0501    8.1188   23.5374 H    0  0  0  0  0  0  0  0  0  0  0  0
    6.4486    8.5789   26.0872 H    0  0  0  0  0  0  0  0  0  0  0  0
    5.4161   10.6222   27.0508 H    0  0  0  0  0  0  0  0  0  0  0  0
  9 10  1  0  0  0  0
  7  9  1  0  0  0  0
  6  7  1  0  0  0  0
  5  6  1  0  0  0  0
  4  5  1  0  0  0  0
  2  4  1  0  0  0  0
  1  2  2  0  0  0  0
  3  2  1  0  0  0  0
 23  3  1  0  0  0  0
 24  3  1  0  0  0  0
 25  4  1  0  0  0  0
 26  5  1  0  0  0  0
 27  5  1  0  0  0  0
 28  6  1  0  0  0  0
 29  6  1  0  0  0  0
 30  7  1  0  0  0  0
 31  7  1  0  0  0  0
  8  4  1  0  0  0  0
 32  8  1  0  0  0  0
 33  8  1  0  0  0  0
 11 10  2  0  0  0  0
 12 10  1  0  0  0  0
 13 12  1  0  0  0  0
 14 13  1  0  0  0  0
 22 14  2  0  0  0  0
 15 14  1  0  0  0  0
 34 15  1  0  0  0  0
 35 15  1  0  0  0  0
 36 15  1  0  0  0  0
 16 13  2  0  0  0  0
 17 16  1  0  0  0  0
 37 17  1  0  0  0  0
 38 17  1  0  0  0  0
 18 17  1  0  0  0  0
 39 18  1  0  0  0  0
 40 18  1  0  0  0  0
 19 18  1  0  0  0  0
 41 19  1  0  0  0  0
 42 19  1  0  0  0  0
 20 16  1  0  0  0  0
 21 20  2  0  0  0  0
 43 21  1  0  0  0  0
 44 22  1  0  0  0  0
  9  8  1  0  0  0  0
 20 19  1  0  0  0  0
 22 21  1  0  0  0  0
M  END
>  <FittedScore>
-33.88

$$$$
