A71EV2A-x4943b_lowest-energy
  FITTED

 41 43     0  0  0  0  0  0  0999 V2000
    6.9447   13.1781   22.7064 O    0  0  0  0  0  0  0  0  0  0  0  0
    7.7552   13.7305   23.4354 C    0  0  0  0  0  0  0  0  0  0  0  0
    8.4396   14.8537   23.0231 N    0  0  0  0  0  0  0  0  0  0  0  0
    9.1677   15.8350   23.9006 C    0  0  0  0  0  0  0  0  0  0  0  0
   10.6716   15.9666   23.5426 C    0  0  0  0  0  0  0  0  0  0  0  0
   10.8524   16.3607   22.0528 C    0  0  0  0  0  0  0  0  0  0  0  0
    8.5567   15.2566   21.5845 C    0  0  0  0  0  0  0  0  0  0  0  0
   10.0420   15.4099   21.1227 C    0  0  0  0  0  0  0  0  0  0  0  0
   10.1312   15.8537   19.6635 C    0  0  0  0  0  0  0  0  0  0  0  0
    9.7480   16.9410   19.2609 O    0  0  0  0  0  0  0  0  0  0  0  0
   10.5129   14.8884   18.8059 N    0  0  0  0  0  0  0  0  0  0  0  0
    8.0782   13.0950   24.8029 C    0  0  0  0  0  0  0  0  0  0  0  0
    8.2787   11.5749   24.6370 C    0  0  0  0  0  0  0  0  0  0  0  0
    9.3123   11.1402   23.7793 C    0  0  0  0  0  0  0  0  0  0  0  0
    9.4753    9.7836   23.4821 C    0  0  0  0  0  0  0  0  0  0  0  0
    8.6124    8.8380   24.0452 C    0  0  0  0  0  0  0  0  0  0  0  0
    7.6068    9.2491   24.9276 C    0  0  0  0  0  0  0  0  0  0  0  0
    7.4367   10.6069   25.2343 C    0  0  0  0  0  0  0  0  0  0  0  0
    6.1406   11.0266   26.3761 S    0  0  0  0  0  0  0  0  0  0  0  0
    5.7732   12.7467   25.9263 C    0  0  0  0  0  0  0  0  0  0  0  0
    7.0604   13.5904   25.8813 C    0  0  0  0  0  0  0  0  0  0  0  0
    8.6874   16.8145   23.7937 H    0  0  0  0  0  0  0  0  0  0  0  0
    9.0795   15.6239   24.9644 H    0  0  0  0  0  0  0  0  0  0  0  0
   11.1370   16.7230   24.1767 H    0  0  0  0  0  0  0  0  0  0  0  0
   11.1818   15.0213   23.7376 H    0  0  0  0  0  0  0  0  0  0  0  0
   10.5286   17.3981   21.9108 H    0  0  0  0  0  0  0  0  0  0  0  0
   11.9122   16.3205   21.7858 H    0  0  0  0  0  0  0  0  0  0  0  0
    8.0150   16.1963   21.4336 H    0  0  0  0  0  0  0  0  0  0  0  0
    8.0723   14.5326   20.9182 H    0  0  0  0  0  0  0  0  0  0  0  0
   10.4983   14.4154   21.2305 H    0  0  0  0  0  0  0  0  0  0  0  0
   10.6133   13.9234   19.1212 H    0  0  0  0  0  0  0  0  0  0  0  0
   10.6036   15.0964   17.8168 H    0  0  0  0  0  0  0  0  0  0  0  0
    9.0598   13.4194   25.1540 H    0  0  0  0  0  0  0  0  0  0  0  0
    9.9810   11.8608   23.3120 H    0  0  0  0  0  0  0  0  0  0  0  0
   10.2646    9.4754   22.8012 H    0  0  0  0  0  0  0  0  0  0  0  0
    8.7319    7.7834   23.8115 H    0  0  0  0  0  0  0  0  0  0  0  0
    6.9499    8.5032   25.3686 H    0  0  0  0  0  0  0  0  0  0  0  0
    5.2644   12.7591   24.9592 H    0  0  0  0  0  0  0  0  0  0  0  0
    5.0797   13.1537   26.6642 H    0  0  0  0  0  0  0  0  0  0  0  0
    6.7961   14.6356   25.7051 H    0  0  0  0  0  0  0  0  0  0  0  0
    7.5346   13.5632   26.8647 H    0  0  0  0  0  0  0  0  0  0  0  0
  2  1  2  0  0  0  0
  3  2  1  0  0  0  0
  4  3  1  0  0  0  0
 22  4  1  0  0  0  0
 23  4  1  0  0  0  0
  5  4  1  0  0  0  0
 24  5  1  0  0  0  0
 25  5  1  0  0  0  0
  6  5  1  0  0  0  0
 26  6  1  0  0  0  0
 27  6  1  0  0  0  0
  7  3  1  0  0  0  0
 28  7  1  0  0  0  0
 29  7  1  0  0  0  0
  8  6  1  0  0  0  0
  9  8  1  0  0  0  0
 30  8  1  0  0  0  0
 10  9  2  0  0  0  0
 11  9  1  0  0  0  0
 31 11  1  0  0  0  0
 32 11  1  0  0  0  0
 12  2  1  0  0  0  0
 21 12  1  0  0  0  0
 33 12  1  0  0  0  0
 13 12  1  0  0  0  0
 14 13  1  0  0  0  0
 34 14  1  0  0  0  0
 15 14  2  0  0  0  0
 35 15  1  0  0  0  0
 16 15  1  0  0  0  0
 36 16  1  0  0  0  0
 17 16  2  0  0  0  0
 37 17  1  0  0  0  0
 18 17  1  0  0  0  0
 19 18  1  0  0  0  0
 20 19  1  0  0  0  0
 38 20  1  0  0  0  0
 39 20  1  0  0  0  0
 40 21  1  0  0  0  0
 41 21  1  0  0  0  0
  8  7  1  0  0  0  0
 18 13  2  0  0  0  0
 21 20  1  0  0  0  0
M  END
>  <FittedScore>
-40.86

$$$$
