A71EV2A-x4290a_best-RMSD
  FITTED

 40 41     0  0  0  0  0  0  0999 V2000
   10.0708   16.8900   19.0767 O    0  0  0  0  0  0  0  0  0  0  0  0
   10.4742   15.8256   19.4934 C    0  0  0  0  0  0  0  0  0  0  0  0
   10.8269   14.8479   18.6442 N    0  0  0  0  0  0  0  0  0  0  0  0
   10.5155   15.4518   20.9624 C    0  0  0  0  0  0  0  0  0  0  0  0
   11.6652   16.1944   21.7030 C    0  0  0  0  0  0  0  0  0  0  0  0
   11.7073   15.7737   23.1992 C    0  0  0  0  0  0  0  0  0  0  0  0
   10.3041   15.8370   23.8689 C    0  0  0  0  0  0  0  0  0  0  0  0
    9.1600   15.6671   21.7069 C    0  0  0  0  0  0  0  0  0  0  0  0
    9.2686   15.0801   23.0819 N    0  0  0  0  0  0  0  0  0  0  0  0
    8.7383   13.8418   23.3832 C    0  0  0  0  0  0  0  0  0  0  0  0
    7.9251   13.3202   22.6331 O    0  0  0  0  0  0  0  0  0  0  0  0
    9.3668   13.0034   24.5141 C    0  0  0  0  0  0  0  0  0  0  0  0
    8.5832   11.7169   24.8168 C    0  0  0  0  0  0  0  0  0  0  0  0
    7.4968   11.6720   25.7328 C    0  0  0  0  0  0  0  0  0  0  0  0
    7.0082   13.1533   26.6252 S    0  0  0  0  0  0  0  0  0  0  0  0
    5.6681   13.8114   25.5742 C    0  0  0  0  0  0  0  0  0  0  0  0
    8.9380   10.5620   24.0919 C    0  0  0  0  0  0  0  0  0  0  0  0
    8.2376    9.3703   24.2713 C    0  0  0  0  0  0  0  0  0  0  0  0
    7.1777    9.3134   25.1822 C    0  0  0  0  0  0  0  0  0  0  0  0
    6.8126   10.4422   25.9287 C    0  0  0  0  0  0  0  0  0  0  0  0
    5.4407   10.1908   27.2439 BR   0  0  0  0  0  0  0  0  0  0  0  0
   10.9931   13.8960   18.9735 H    0  0  0  0  0  0  0  0  0  0  0  0
   10.8153   15.0384   17.6536 H    0  0  0  0  0  0  0  0  0  0  0  0
   10.7345   14.3785   21.0288 H    0  0  0  0  0  0  0  0  0  0  0  0
   12.6202   15.9626   21.2276 H    0  0  0  0  0  0  0  0  0  0  0  0
   11.5272   17.2782   21.6249 H    0  0  0  0  0  0  0  0  0  0  0  0
   12.0990   14.7545   23.2768 H    0  0  0  0  0  0  0  0  0  0  0  0
   12.3998   16.4229   23.7376 H    0  0  0  0  0  0  0  0  0  0  0  0
   10.3940   15.5045   24.9005 H    0  0  0  0  0  0  0  0  0  0  0  0
    9.9935   16.8812   23.9570 H    0  0  0  0  0  0  0  0  0  0  0  0
    8.3527   15.2300   21.1137 H    0  0  0  0  0  0  0  0  0  0  0  0
    8.9124   16.7322   21.7659 H    0  0  0  0  0  0  0  0  0  0  0  0
   10.3918   12.7510   24.2219 H    0  0  0  0  0  0  0  0  0  0  0  0
    9.4813   13.5674   25.4410 H    0  0  0  0  0  0  0  0  0  0  0  0
    5.1974   14.6657   26.0572 H    0  0  0  0  0  0  0  0  0  0  0  0
    4.9160   13.0394   25.3956 H    0  0  0  0  0  0  0  0  0  0  0  0
    6.0720   14.1262   24.6131 H    0  0  0  0  0  0  0  0  0  0  0  0
    9.7446   10.5919   23.3612 H    0  0  0  0  0  0  0  0  0  0  0  0
    8.5041    8.4934   23.6874 H    0  0  0  0  0  0  0  0  0  0  0  0
    6.6451    8.3701   25.2944 H    0  0  0  0  0  0  0  0  0  0  0  0
  9 10  1  0  0  0  0
  7  9  1  0  0  0  0
  6  7  1  0  0  0  0
  5  6  1  0  0  0  0
  4  5  1  0  0  0  0
  2  4  1  0  0  0  0
  1  2  2  0  0  0  0
  3  2  1  0  0  0  0
 22  3  1  0  0  0  0
 23  3  1  0  0  0  0
 24  4  1  0  0  0  0
 25  5  1  0  0  0  0
 26  5  1  0  0  0  0
 27  6  1  0  0  0  0
 28  6  1  0  0  0  0
 29  7  1  0  0  0  0
 30  7  1  0  0  0  0
  8  4  1  0  0  0  0
 31  8  1  0  0  0  0
 32  8  1  0  0  0  0
 11 10  2  0  0  0  0
 12 10  1  0  0  0  0
 33 12  1  0  0  0  0
 34 12  1  0  0  0  0
 13 12  1  0  0  0  0
 14 13  1  0  0  0  0
 20 14  2  0  0  0  0
 15 14  1  0  0  0  0
 16 15  1  0  0  0  0
 35 16  1  0  0  0  0
 36 16  1  0  0  0  0
 37 16  1  0  0  0  0
 17 13  2  0  0  0  0
 38 17  1  0  0  0  0
 18 17  1  0  0  0  0
 39 18  1  0  0  0  0
 19 18  2  0  0  0  0
 40 19  1  0  0  0  0
 21 20  1  0  0  0  0
  9  8  1  0  0  0  0
 20 19  1  0  0  0  0
M  END
>  <FittedScore>
-32.71

$$$$
