A71EV2A-x4290a_lowest-energy
  FITTED

 40 41     0  0  0  0  0  0  0999 V2000
    9.7822   16.6643   19.0205 O    0  0  0  0  0  0  0  0  0  0  0  0
   10.4039   15.7297   19.4804 C    0  0  0  0  0  0  0  0  0  0  0  0
   10.9257   14.8148   18.6534 N    0  0  0  0  0  0  0  0  0  0  0  0
   10.4519   15.3631   20.9605 C    0  0  0  0  0  0  0  0  0  0  0  0
   11.5031   16.2143   21.7318 C    0  0  0  0  0  0  0  0  0  0  0  0
   11.5381   15.8012   23.2305 C    0  0  0  0  0  0  0  0  0  0  0  0
   10.1129   15.7831   23.8490 C    0  0  0  0  0  0  0  0  0  0  0  0
    9.0571   15.4451   21.6523 C    0  0  0  0  0  0  0  0  0  0  0  0
    9.1570   14.9336   23.0549 N    0  0  0  0  0  0  0  0  0  0  0  0
    8.6044   13.7418   23.4428 C    0  0  0  0  0  0  0  0  0  0  0  0
    7.7181   13.2135   22.7856 O    0  0  0  0  0  0  0  0  0  0  0  0
    9.2839   12.9743   24.5857 C    0  0  0  0  0  0  0  0  0  0  0  0
    8.6055   11.6440   24.8703 C    0  0  0  0  0  0  0  0  0  0  0  0
    7.5111   11.5273   25.7697 C    0  0  0  0  0  0  0  0  0  0  0  0
    6.9069   12.9571   26.6731 S    0  0  0  0  0  0  0  0  0  0  0  0
    5.4913   13.4603   25.6414 C    0  0  0  0  0  0  0  0  0  0  0  0
    9.0329   10.5340   24.1224 C    0  0  0  0  0  0  0  0  0  0  0  0
    8.4011    9.3023   24.2691 C    0  0  0  0  0  0  0  0  0  0  0  0
    7.3421    9.1738   25.1673 C    0  0  0  0  0  0  0  0  0  0  0  0
    6.9084   10.2605   25.9374 C    0  0  0  0  0  0  0  0  0  0  0  0
    5.5827    9.9139   27.2749 BR   0  0  0  0  0  0  0  0  0  0  0  0
   11.1849   13.8918   19.0009 H    0  0  0  0  0  0  0  0  0  0  0  0
   10.9087   14.9782   17.6519 H    0  0  0  0  0  0  0  0  0  0  0  0
   10.7732   14.3162   21.0569 H    0  0  0  0  0  0  0  0  0  0  0  0
   12.4956   16.0790   21.2901 H    0  0  0  0  0  0  0  0  0  0  0  0
   11.2577   17.2781   21.6478 H    0  0  0  0  0  0  0  0  0  0  0  0
   11.9927   14.8101   23.3276 H    0  0  0  0  0  0  0  0  0  0  0  0
   12.1719   16.4926   23.7890 H    0  0  0  0  0  0  0  0  0  0  0  0
   10.1915   15.4893   24.8937 H    0  0  0  0  0  0  0  0  0  0  0  0
    9.7210   16.8036   23.8940 H    0  0  0  0  0  0  0  0  0  0  0  0
    8.3392   14.8879   21.0435 H    0  0  0  0  0  0  0  0  0  0  0  0
    8.6861   16.4747   21.6608 H    0  0  0  0  0  0  0  0  0  0  0  0
   10.3350   12.8107   24.3332 H    0  0  0  0  0  0  0  0  0  0  0  0
    9.3114   13.5609   25.5008 H    0  0  0  0  0  0  0  0  0  0  0  0
    4.8522   12.5979   25.4460 H    0  0  0  0  0  0  0  0  0  0  0  0
    5.8502   13.8585   24.6907 H    0  0  0  0  0  0  0  0  0  0  0  0
    4.9081   14.2233   26.1590 H    0  0  0  0  0  0  0  0  0  0  0  0
    9.8472   10.6256   23.4076 H    0  0  0  0  0  0  0  0  0  0  0  0
    8.7434    8.4455   23.6963 H    0  0  0  0  0  0  0  0  0  0  0  0
    6.8748    8.1974   25.2809 H    0  0  0  0  0  0  0  0  0  0  0  0
  9 10  1  0  0  0  0
  7  9  1  0  0  0  0
  6  7  1  0  0  0  0
  5  6  1  0  0  0  0
  4  5  1  0  0  0  0
  2  4  1  0  0  0  0
  1  2  2  0  0  0  0
  3  2  1  0  0  0  0
 22  3  1  0  0  0  0
 23  3  1  0  0  0  0
 24  4  1  0  0  0  0
 25  5  1  0  0  0  0
 26  5  1  0  0  0  0
 27  6  1  0  0  0  0
 28  6  1  0  0  0  0
 29  7  1  0  0  0  0
 30  7  1  0  0  0  0
  8  4  1  0  0  0  0
 31  8  1  0  0  0  0
 32  8  1  0  0  0  0
 11 10  2  0  0  0  0
 12 10  1  0  0  0  0
 33 12  1  0  0  0  0
 34 12  1  0  0  0  0
 13 12  1  0  0  0  0
 14 13  1  0  0  0  0
 20 14  2  0  0  0  0
 15 14  1  0  0  0  0
 16 15  1  0  0  0  0
 35 16  1  0  0  0  0
 36 16  1  0  0  0  0
 37 16  1  0  0  0  0
 17 13  2  0  0  0  0
 38 17  1  0  0  0  0
 18 17  1  0  0  0  0
 39 18  1  0  0  0  0
 19 18  2  0  0  0  0
 40 19  1  0  0  0  0
 21 20  1  0  0  0  0
  9  8  1  0  0  0  0
 20 19  1  0  0  0  0
M  END
>  <FittedScore>
-32.04

$$$$
