A71EV2A-x4274a_lowest-energy
  FITTED

 38 39     0  0  0  0  0  0  0999 V2000
    9.8652   16.8282   19.6008 O    0  0  0  0  0  0  0  0  0  0  0  0
   10.4106   15.7861   19.9168 C    0  0  0  0  0  0  0  0  0  0  0  0
   10.7221   14.8775   18.9718 N    0  0  0  0  0  0  0  0  0  0  0  0
   10.4124   15.2667   21.3495 C    0  0  0  0  0  0  0  0  0  0  0  0
   11.0599   16.2837   22.3383 C    0  0  0  0  0  0  0  0  0  0  0  0
   10.9609   15.7888   23.8100 C    0  0  0  0  0  0  0  0  0  0  0  0
    9.5177   15.3598   24.2139 C    0  0  0  0  0  0  0  0  0  0  0  0
    8.9498   14.9343   21.7729 C    0  0  0  0  0  0  0  0  0  0  0  0
    8.8567   14.4139   23.2042 N    0  0  0  0  0  0  0  0  0  0  0  0
    9.2485   12.9375   23.3775 C    0  0  0  0  0  0  0  0  0  0  0  0
    8.2569   12.1507   24.2592 C    0  0  0  0  0  0  0  0  0  0  0  0
    8.2136   10.7333   24.2163 C    0  0  0  0  0  0  0  0  0  0  0  0
    9.1080   10.0564   23.3932 O    0  0  0  0  0  0  0  0  0  0  0  0
    9.2149    8.6187   23.2959 C    0  0  0  0  0  0  0  0  0  0  0  0
    7.4125   12.8558   25.0752 N    0  0  0  0  0  0  0  0  0  0  0  0
    6.5206   12.1939   25.8574 C    0  0  0  0  0  0  0  0  0  0  0  0
    6.4113   10.7990   25.8453 C    0  0  0  0  0  0  0  0  0  0  0  0
    7.2593   10.0597   25.0141 C    0  0  0  0  0  0  0  0  0  0  0  0
   10.6759   15.1322   17.9889 H    0  0  0  0  0  0  0  0  0  0  0  0
   10.8440   13.8962   19.2287 H    0  0  0  0  0  0  0  0  0  0  0  0
   11.0079   14.3463   21.4053 H    0  0  0  0  0  0  0  0  0  0  0  0
   12.1089   16.4494   22.0745 H    0  0  0  0  0  0  0  0  0  0  0  0
   10.5631   17.2565   22.2587 H    0  0  0  0  0  0  0  0  0  0  0  0
   11.6562   14.9587   23.9687 H    0  0  0  0  0  0  0  0  0  0  0  0
   11.2867   16.5963   24.4735 H    0  0  0  0  0  0  0  0  0  0  0  0
    9.5270   14.8847   25.1965 H    0  0  0  0  0  0  0  0  0  0  0  0
    8.8755   16.2379   24.3003 H    0  0  0  0  0  0  0  0  0  0  0  0
    8.4917   14.2132   21.0906 H    0  0  0  0  0  0  0  0  0  0  0  0
    8.3283   15.8342   21.7216 H    0  0  0  0  0  0  0  0  0  0  0  0
    7.8402   14.4403   23.4128 H    0  0  0  0  0  0  0  0  0  0  0  0
    9.2734   12.4651   22.3937 H    0  0  0  0  0  0  0  0  0  0  0  0
   10.2631   12.8600   23.7803 H    0  0  0  0  0  0  0  0  0  0  0  0
    9.9672    8.3693   22.5522 H    0  0  0  0  0  0  0  0  0  0  0  0
    8.2599    8.1781   22.9806 H    0  0  0  0  0  0  0  0  0  0  0  0
    9.5338    8.2110   24.2543 H    0  0  0  0  0  0  0  0  0  0  0  0
    5.8691   12.7678   26.5083 H    0  0  0  0  0  0  0  0  0  0  0  0
    5.6812   10.2969   26.4731 H    0  0  0  0  0  0  0  0  0  0  0  0
    7.1630    8.9784   25.0057 H    0  0  0  0  0  0  0  0  0  0  0  0
  9 10  1  0  0  0  0
  7  9  1  0  0  0  0
  6  7  1  0  0  0  0
  5  6  1  0  0  0  0
  4  5  1  0  0  0  0
  2  4  1  0  0  0  0
  1  2  2  0  0  0  0
  3  2  1  0  0  0  0
 19  3  1  0  0  0  0
 20  3  1  0  0  0  0
 21  4  1  0  0  0  0
 22  5  1  0  0  0  0
 23  5  1  0  0  0  0
 24  6  1  0  0  0  0
 25  6  1  0  0  0  0
 26  7  1  0  0  0  0
 27  7  1  0  0  0  0
  8  4  1  0  0  0  0
 28  8  1  0  0  0  0
 29  8  1  0  0  0  0
 30  9  1  0  0  0  0
 31 10  1  0  0  0  0
 32 10  1  0  0  0  0
 11 10  1  0  0  0  0
 12 11  1  0  0  0  0
 18 12  2  0  0  0  0
 13 12  1  0  0  0  0
 14 13  1  0  0  0  0
 33 14  1  0  0  0  0
 34 14  1  0  0  0  0
 35 14  1  0  0  0  0
 15 11  2  0  0  0  0
 16 15  1  0  0  0  0
 36 16  1  0  0  0  0
 17 16  2  0  0  0  0
 37 17  1  0  0  0  0
 38 18  1  0  0  0  0
  9  8  1  0  0  0  0
 18 17  1  0  0  0  0
M  CHG  1   9   1
M  END
>  <FittedScore>
-28.15

$$$$
