A71EV2A-x3234a_best-RMSD
  FITTED

 38 40     0  0  0  0  0  0  0999 V2000
    9.5089   13.7824   23.6669 C    0  0  0  0  0  0  0  0  0  0  0  0
    8.9599   12.4196   24.1220 C    0  0  0  0  0  0  0  0  0  0  0  0
    9.5754   11.2642   23.6187 C    0  0  0  0  0  0  0  0  0  0  0  0
    9.0894    9.9872   23.9335 C    0  0  0  0  0  0  0  0  0  0  0  0
    9.6828    8.7600   23.2622 C    0  0  0  0  0  0  0  0  0  0  0  0
    7.8390   12.2826   24.9862 C    0  0  0  0  0  0  0  0  0  0  0  0
    7.4013   10.9904   25.3865 C    0  0  0  0  0  0  0  0  0  0  0  0
    6.2293   10.7800   26.3534 C    0  0  0  0  0  0  0  0  0  0  0  0
    8.0186    9.8590   24.8296 C    0  0  0  0  0  0  0  0  0  0  0  0
    7.1430   13.3969   25.3967 N    0  0  0  0  0  0  0  0  0  0  0  0
    6.3271   14.2581   24.7084 C    0  0  0  0  0  0  0  0  0  0  0  0
    5.8597   14.0355   23.3139 N    0  0  0  0  0  0  0  0  0  0  0  0
    4.9814   15.0820   23.1951 N    0  0  0  0  0  0  0  0  0  0  0  0
    4.9617   15.9285   24.2678 C    0  0  0  0  0  0  0  0  0  0  0  0
    5.7974   15.4196   25.2339 C    0  0  0  0  0  0  0  0  0  0  0  0
    4.0579   15.1408   22.0030 C    0  0  0  0  0  0  0  0  0  0  0  0
    3.8309   13.8639   21.1227 C    0  0  0  0  0  0  0  0  0  0  0  0
    2.4297   14.2621   21.0153 O    0  0  0  0  0  0  0  0  0  0  0  0
    2.5370   14.9368   22.3151 C    0  0  0  0  0  0  0  0  0  0  0  0
    9.5356   14.5011   24.4896 H    0  0  0  0  0  0  0  0  0  0  0  0
    8.8817   14.1942   22.8728 H    0  0  0  0  0  0  0  0  0  0  0  0
   10.5280   13.7087   23.2811 H    0  0  0  0  0  0  0  0  0  0  0  0
   10.4228   11.3618   22.9411 H    0  0  0  0  0  0  0  0  0  0  0  0
    8.9107    8.0233   23.0247 H    0  0  0  0  0  0  0  0  0  0  0  0
   10.4184    8.2838   23.9148 H    0  0  0  0  0  0  0  0  0  0  0  0
   10.1778    9.0180   22.3215 H    0  0  0  0  0  0  0  0  0  0  0  0
    5.2907   11.0875   25.8864 H    0  0  0  0  0  0  0  0  0  0  0  0
    6.3674   11.3627   27.2673 H    0  0  0  0  0  0  0  0  0  0  0  0
    6.1233    9.7349   26.6559 H    0  0  0  0  0  0  0  0  0  0  0  0
    7.6665    8.8622   25.0861 H    0  0  0  0  0  0  0  0  0  0  0  0
    7.0564   13.4742   26.4070 H    0  0  0  0  0  0  0  0  0  0  0  0
    4.3594   16.8300   24.3508 H    0  0  0  0  0  0  0  0  0  0  0  0
    5.9848   15.8327   26.2200 H    0  0  0  0  0  0  0  0  0  0  0  0
    4.2554   16.0389   21.4039 H    0  0  0  0  0  0  0  0  0  0  0  0
    4.3565   13.8430   20.1629 H    0  0  0  0  0  0  0  0  0  0  0  0
    4.0414   12.8956   21.5999 H    0  0  0  0  0  0  0  0  0  0  0  0
    1.9351   15.8488   22.3859 H    0  0  0  0  0  0  0  0  0  0  0  0
    2.3169   14.3529   23.2214 H    0  0  0  0  0  0  0  0  0  0  0  0
  6 10  1  0  0  0  0
  2  6  2  0  0  0  0
  1  2  1  0  0  0  0
 20  1  1  0  0  0  0
 21  1  1  0  0  0  0
 22  1  1  0  0  0  0
  3  2  1  0  0  0  0
 23  3  1  0  0  0  0
  4  3  2  0  0  0  0
  9  4  1  0  0  0  0
  5  4  1  0  0  0  0
 24  5  1  0  0  0  0
 25  5  1  0  0  0  0
 26  5  1  0  0  0  0
  7  6  1  0  0  0  0
  8  7  1  0  0  0  0
 27  8  1  0  0  0  0
 28  8  1  0  0  0  0
 29  8  1  0  0  0  0
 30  9  1  0  0  0  0
 31 10  1  0  0  0  0
 11 10  1  0  0  0  0
 15 11  1  0  0  0  0
 12 11  2  0  0  0  0
 13 12  1  0  0  0  0
 14 13  1  0  0  0  0
 32 14  1  0  0  0  0
 33 15  1  0  0  0  0
 16 13  1  0  0  0  0
 19 16  1  0  0  0  0
 34 16  1  0  0  0  0
 17 16  1  0  0  0  0
 35 17  1  0  0  0  0
 36 17  1  0  0  0  0
 18 17  1  0  0  0  0
 37 19  1  0  0  0  0
 38 19  1  0  0  0  0
  9  7  2  0  0  0  0
 15 14  2  0  0  0  0
 19 18  1  0  0  0  0
M  END
>  <FittedScore>
-26.72

$$$$
