A71EV2A-x3234a_lowest-energy
  FITTED

 38 40     0  0  0  0  0  0  0999 V2000
    8.9775    9.3382   23.7592 C    0  0  0  0  0  0  0  0  0  0  0  0
    8.2948   10.3601   24.6863 C    0  0  0  0  0  0  0  0  0  0  0  0
    7.1988    9.9338   25.4525 C    0  0  0  0  0  0  0  0  0  0  0  0
    6.5722   10.7954   26.3620 C    0  0  0  0  0  0  0  0  0  0  0  0
    5.4388   10.2856   27.2410 C    0  0  0  0  0  0  0  0  0  0  0  0
    8.7553   11.6960   24.8256 C    0  0  0  0  0  0  0  0  0  0  0  0
    8.0846   12.5987   25.6990 C    0  0  0  0  0  0  0  0  0  0  0  0
    8.5106   14.0600   25.9210 C    0  0  0  0  0  0  0  0  0  0  0  0
    7.0053   12.1229   26.4653 C    0  0  0  0  0  0  0  0  0  0  0  0
    9.8924   12.0606   24.1461 N    0  0  0  0  0  0  0  0  0  0  0  0
   10.3159   13.0885   23.3643 C    0  0  0  0  0  0  0  0  0  0  0  0
    9.4689   14.0899   22.6664 N    0  0  0  0  0  0  0  0  0  0  0  0
   10.4608   14.7844   22.0199 N    0  0  0  0  0  0  0  0  0  0  0  0
   11.7165   14.3354   22.2462 C    0  0  0  0  0  0  0  0  0  0  0  0
   11.6473   13.2754   23.1008 C    0  0  0  0  0  0  0  0  0  0  0  0
   10.1541   15.8760   21.0456 C    0  0  0  0  0  0  0  0  0  0  0  0
   10.2176   15.4060   19.5648 C    0  0  0  0  0  0  0  0  0  0  0  0
    9.0500   16.2498   19.3055 O    0  0  0  0  0  0  0  0  0  0  0  0
    8.6756   16.2535   20.7278 C    0  0  0  0  0  0  0  0  0  0  0  0
   10.0027    9.1516   24.0891 H    0  0  0  0  0  0  0  0  0  0  0  0
    9.0073    9.6999   22.7295 H    0  0  0  0  0  0  0  0  0  0  0  0
    8.4625    8.3751   23.7491 H    0  0  0  0  0  0  0  0  0  0  0  0
    6.8392    8.9098   25.3603 H    0  0  0  0  0  0  0  0  0  0  0  0
    4.4924   10.3375   26.6965 H    0  0  0  0  0  0  0  0  0  0  0  0
    5.3394   10.8669   28.1610 H    0  0  0  0  0  0  0  0  0  0  0  0
    5.6050    9.2434   27.5304 H    0  0  0  0  0  0  0  0  0  0  0  0
    8.0927   14.6967   25.1390 H    0  0  0  0  0  0  0  0  0  0  0  0
    9.5968   14.1767   25.9186 H    0  0  0  0  0  0  0  0  0  0  0  0
    8.1683   14.4485   26.8830 H    0  0  0  0  0  0  0  0  0  0  0  0
    6.5053   12.7895   27.1652 H    0  0  0  0  0  0  0  0  0  0  0  0
   10.5946   11.3324   24.2007 H    0  0  0  0  0  0  0  0  0  0  0  0
   12.6256   14.7430   21.8072 H    0  0  0  0  0  0  0  0  0  0  0  0
   12.4798   12.6827   23.4773 H    0  0  0  0  0  0  0  0  0  0  0  0
   10.7709   16.7618   21.2436 H    0  0  0  0  0  0  0  0  0  0  0  0
   11.1023   15.7144   19.0013 H    0  0  0  0  0  0  0  0  0  0  0  0
   10.1180   14.3253   19.4047 H    0  0  0  0  0  0  0  0  0  0  0  0
    8.3468   17.2346   21.0838 H    0  0  0  0  0  0  0  0  0  0  0  0
    7.8954   15.5490   21.0414 H    0  0  0  0  0  0  0  0  0  0  0  0
  6 10  1  0  0  0  0
  2  6  2  0  0  0  0
  1  2  1  0  0  0  0
 20  1  1  0  0  0  0
 21  1  1  0  0  0  0
 22  1  1  0  0  0  0
  3  2  1  0  0  0  0
 23  3  1  0  0  0  0
  4  3  2  0  0  0  0
  9  4  1  0  0  0  0
  5  4  1  0  0  0  0
 24  5  1  0  0  0  0
 25  5  1  0  0  0  0
 26  5  1  0  0  0  0
  7  6  1  0  0  0  0
  8  7  1  0  0  0  0
 27  8  1  0  0  0  0
 28  8  1  0  0  0  0
 29  8  1  0  0  0  0
 30  9  1  0  0  0  0
 31 10  1  0  0  0  0
 11 10  1  0  0  0  0
 15 11  1  0  0  0  0
 12 11  2  0  0  0  0
 13 12  1  0  0  0  0
 14 13  1  0  0  0  0
 32 14  1  0  0  0  0
 33 15  1  0  0  0  0
 16 13  1  0  0  0  0
 19 16  1  0  0  0  0
 34 16  1  0  0  0  0
 17 16  1  0  0  0  0
 35 17  1  0  0  0  0
 36 17  1  0  0  0  0
 18 17  1  0  0  0  0
 37 19  1  0  0  0  0
 38 19  1  0  0  0  0
  9  7  2  0  0  0  0
 15 14  2  0  0  0  0
 19 18  1  0  0  0  0
M  END
>  <FittedScore>
-28.43

$$$$
