A71EV2A-x7050a_best-RMSD
  FITTED

 55 59     0  0  0  0  0  0  0999 V2000
    9.5558    8.6998   23.2404 C    0  0  0  0  0  0  0  0  0  0  0  0
    9.3835   10.4055   23.8292 S    0  0  0  0  0  0  0  0  0  0  0  0
    7.9464   10.4656   24.9070 C    0  0  0  0  0  0  0  0  0  0  0  0
    7.4107    9.2947   25.3228 N    0  0  0  0  0  0  0  0  0  0  0  0
    6.3221    9.3191   26.1338 C    0  0  0  0  0  0  0  0  0  0  0  0
    5.6849   10.4505   26.5210 N    0  0  0  0  0  0  0  0  0  0  0  0
    6.1895   11.6532   26.1263 C    0  0  0  0  0  0  0  0  0  0  0  0
    5.4874   12.7921   26.5155 N    0  0  0  0  0  0  0  0  0  0  0  0
    4.9965   12.9679   27.9129 C    0  0  0  0  0  0  0  0  0  0  0  0
    3.4653   12.6721   27.9821 C    0  0  0  0  0  0  0  0  0  0  0  0
    2.6781   13.1875   26.7769 C    0  0  0  0  0  0  0  0  0  0  0  0
    1.2920   13.2208   26.6660 C    0  0  0  0  0  0  0  0  0  0  0  0
    0.8609   13.7174   25.4418 C    0  0  0  0  0  0  0  0  0  0  0  0
    2.1991   14.1445   24.3719 S    0  0  0  0  0  0  0  0  0  0  0  0
    3.3265   13.6462   25.6349 C    0  0  0  0  0  0  0  0  0  0  0  0
    4.8448   13.6875   25.5053 C    0  0  0  0  0  0  0  0  0  0  0  0
    7.3735   11.6935   25.3360 C    0  0  0  0  0  0  0  0  0  0  0  0
    8.1058   13.0174   25.0418 C    0  0  0  0  0  0  0  0  0  0  0  0
    7.9531   13.5654   23.5923 C    0  0  0  0  0  0  0  0  0  0  0  0
    7.0114   13.1966   22.8932 O    0  0  0  0  0  0  0  0  0  0  0  0
    8.9159   14.4227   23.1025 N    0  0  0  0  0  0  0  0  0  0  0  0
    8.9297   14.9527   21.7086 C    0  0  0  0  0  0  0  0  0  0  0  0
   10.3626   15.1007   21.0969 C    0  0  0  0  0  0  0  0  0  0  0  0
   10.3384   15.6929   19.6892 C    0  0  0  0  0  0  0  0  0  0  0  0
   11.2197   15.1966   18.8223 N    0  0  0  0  0  0  0  0  0  0  0  0
    9.5727   16.5398   19.2874 O    0  0  0  0  0  0  0  0  0  0  0  0
   11.3076   15.9549   22.0049 C    0  0  0  0  0  0  0  0  0  0  0  0
   11.3173   15.4431   23.4492 C    0  0  0  0  0  0  0  0  0  0  0  0
   11.3987   14.0159   23.9338 C    0  0  0  0  0  0  0  0  0  0  0  0
   10.1000   14.7638   23.9750 C    0  0  0  0  0  0  0  0  0  0  0  0
    9.8872    8.0456   24.0460 H    0  0  0  0  0  0  0  0  0  0  0  0
   10.3074    8.6586   22.4430 H    0  0  0  0  0  0  0  0  0  0  0  0
    8.6096    8.3353   22.8227 H    0  0  0  0  0  0  0  0  0  0  0  0
    5.9320    8.3685   26.4905 H    0  0  0  0  0  0  0  0  0  0  0  0
    5.1818   13.9907   28.2534 H    0  0  0  0  0  0  0  0  0  0  0  0
    5.5274   12.3232   28.6178 H    0  0  0  0  0  0  0  0  0  0  0  0
    3.0601   13.1110   28.8966 H    0  0  0  0  0  0  0  0  0  0  0  0
    3.3151   11.5920   28.0590 H    0  0  0  0  0  0  0  0  0  0  0  0
    0.6185   12.8965   27.4537 H    0  0  0  0  0  0  0  0  0  0  0  0
   -0.1792   13.8385   25.1632 H    0  0  0  0  0  0  0  0  0  0  0  0
    5.1996   14.7163   25.5992 H    0  0  0  0  0  0  0  0  0  0  0  0
    5.0754   13.3769   24.4871 H    0  0  0  0  0  0  0  0  0  0  0  0
    9.1456   12.8129   25.3107 H    0  0  0  0  0  0  0  0  0  0  0  0
    7.7977   13.8176   25.7169 H    0  0  0  0  0  0  0  0  0  0  0  0
    8.4249   15.9230   21.7376 H    0  0  0  0  0  0  0  0  0  0  0  0
    8.3522   14.3128   21.0380 H    0  0  0  0  0  0  0  0  0  0  0  0
   10.7798   14.0916   21.0224 H    0  0  0  0  0  0  0  0  0  0  0  0
   11.1113   15.4062   17.8411 H    0  0  0  0  0  0  0  0  0  0  0  0
   11.9016   14.5117   19.1164 H    0  0  0  0  0  0  0  0  0  0  0  0
   10.9783   17.0009   22.0015 H    0  0  0  0  0  0  0  0  0  0  0  0
   12.3288   15.9459   21.6101 H    0  0  0  0  0  0  0  0  0  0  0  0
   11.7989   16.1566   24.1130 H    0  0  0  0  0  0  0  0  0  0  0  0
   11.8945   13.8243   24.8801 H    0  0  0  0  0  0  0  0  0  0  0  0
   11.5120   13.2128   23.2062 H    0  0  0  0  0  0  0  0  0  0  0  0
    9.6160   15.2588   24.8088 H    0  0  0  0  0  0  0  0  0  0  0  0
 18 19  1  0  0  0  0
 17 18  1  0  0  0  0
  7 17  2  0  0  0  0
  6  7  1  0  0  0  0
  5  6  2  0  0  0  0
  4  5  1  0  0  0  0
  3  4  2  0  0  0  0
  2  3  1  0  0  0  0
  1  2  1  0  0  0  0
 31  1  1  0  0  0  0
 32  1  1  0  0  0  0
 33  1  1  0  0  0  0
 34  5  1  0  0  0  0
  8  7  1  0  0  0  0
  9  8  1  0  0  0  0
 10  9  1  0  0  0  0
 35  9  1  0  0  0  0
 36  9  1  0  0  0  0
 11 10  1  0  0  0  0
 37 10  1  0  0  0  0
 38 10  1  0  0  0  0
 12 11  1  0  0  0  0
 13 12  2  0  0  0  0
 39 12  1  0  0  0  0
 14 13  1  0  0  0  0
 40 13  1  0  0  0  0
 15 14  1  0  0  0  0
 16 15  1  0  0  0  0
 41 16  1  0  0  0  0
 42 16  1  0  0  0  0
 43 18  1  0  0  0  0
 44 18  1  0  0  0  0
 20 19  2  0  0  0  0
 21 19  1  0  0  0  0
 22 21  1  0  0  0  0
 23 22  1  0  0  0  0
 45 22  1  0  0  0  0
 46 22  1  0  0  0  0
 24 23  1  0  0  0  0
 27 23  1  0  0  0  0
 47 23  1  0  0  0  0
 25 24  1  0  0  0  0
 26 24  2  0  0  0  0
 48 25  1  0  0  0  0
 49 25  1  0  0  0  0
 50 27  1  0  0  0  0
 51 27  1  0  0  0  0
 28 27  1  0  0  0  0
 29 28  1  0  0  0  0
 52 28  1  0  0  0  0
 53 29  1  0  0  0  0
 54 29  1  0  0  0  0
 30 29  1  0  0  0  0
 55 30  1  0  0  0  0
 15 11  2  0  0  0  0
 16  8  1  0  0  0  0
 17  3  1  0  0  0  0
 30 21  1  0  0  0  0
 30 28  1  0  0  0  0
M  END
>  <FittedScore>
-35.84

$$$$
