A71EV2A-x7050a_lowest-energy
  FITTED

 55 59     0  0  0  0  0  0  0999 V2000
    6.6563    9.1257   25.8260 C    0  0  0  0  0  0  0  0  0  0  0  0
    6.7556   10.8777   26.4354 S    0  0  0  0  0  0  0  0  0  0  0  0
    7.9195   11.7605   25.4429 C    0  0  0  0  0  0  0  0  0  0  0  0
    8.8474   10.9464   24.8820 N    0  0  0  0  0  0  0  0  0  0  0  0
    9.6789   11.4862   23.9690 C    0  0  0  0  0  0  0  0  0  0  0  0
    9.6067   12.7610   23.5204 N    0  0  0  0  0  0  0  0  0  0  0  0
    8.7149   13.6058   24.1138 C    0  0  0  0  0  0  0  0  0  0  0  0
    8.5571   14.8376   23.4944 N    0  0  0  0  0  0  0  0  0  0  0  0
    7.6187   14.9047   22.3324 C    0  0  0  0  0  0  0  0  0  0  0  0
    8.3617   14.6785   21.0133 C    0  0  0  0  0  0  0  0  0  0  0  0
    9.7433   15.2545   20.9019 C    0  0  0  0  0  0  0  0  0  0  0  0
   10.5260   15.2652   19.7610 C    0  0  0  0  0  0  0  0  0  0  0  0
   11.7753   15.7906   19.9989 C    0  0  0  0  0  0  0  0  0  0  0  0
   11.9859   16.3423   21.6771 S    0  0  0  0  0  0  0  0  0  0  0  0
   10.3779   15.7514   22.0404 C    0  0  0  0  0  0  0  0  0  0  0  0
    9.7200   15.7639   23.4225 C    0  0  0  0  0  0  0  0  0  0  0  0
    7.9252   13.1723   25.2172 C    0  0  0  0  0  0  0  0  0  0  0  0
    7.0568   14.2003   26.0084 C    0  0  0  0  0  0  0  0  0  0  0  0
    5.6708   14.3823   25.3741 C    0  0  0  0  0  0  0  0  0  0  0  0
    5.4566   13.8536   24.3206 O    0  0  0  0  0  0  0  0  0  0  0  0
    4.6745   15.1716   25.8924 N    0  0  0  0  0  0  0  0  0  0  0  0
    3.4302   15.4182   25.0961 C    0  0  0  0  0  0  0  0  0  0  0  0
    2.1730   15.7946   25.9394 C    0  0  0  0  0  0  0  0  0  0  0  0
    1.4606   14.5723   26.5209 C    0  0  0  0  0  0  0  0  0  0  0  0
    0.1255   14.5605   26.4041 N    0  0  0  0  0  0  0  0  0  0  0  0
    2.0437   13.6053   26.9981 O    0  0  0  0  0  0  0  0  0  0  0  0
    2.4347   16.9131   26.9972 C    0  0  0  0  0  0  0  0  0  0  0  0
    3.7672   16.6719   27.7180 C    0  0  0  0  0  0  0  0  0  0  0  0
    4.8688   17.5651   27.2908 C    0  0  0  0  0  0  0  0  0  0  0  0
    4.9832   16.0990   27.0483 C    0  0  0  0  0  0  0  0  0  0  0  0
    5.9946    8.5855   26.5046 H    0  0  0  0  0  0  0  0  0  0  0  0
    7.5647    8.5001   25.7831 H    0  0  0  0  0  0  0  0  0  0  0  0
    6.2496    9.0568   24.8134 H    0  0  0  0  0  0  0  0  0  0  0  0
   10.4449   10.8481   23.5567 H    0  0  0  0  0  0  0  0  0  0  0  0
    7.0641   15.8487   22.3140 H    0  0  0  0  0  0  0  0  0  0  0  0
    6.8769   14.1058   22.3199 H    0  0  0  0  0  0  0  0  0  0  0  0
    7.7353   15.0590   20.1944 H    0  0  0  0  0  0  0  0  0  0  0  0
    8.4420   13.5912   20.8522 H    0  0  0  0  0  0  0  0  0  0  0  0
   10.2060   14.8848   18.7842 H    0  0  0  0  0  0  0  0  0  0  0  0
   12.5443   15.8970   19.2365 H    0  0  0  0  0  0  0  0  0  0  0  0
    9.3830   16.7804   23.6402 H    0  0  0  0  0  0  0  0  0  0  0  0
   10.4748   15.5007   24.1714 H    0  0  0  0  0  0  0  0  0  0  0  0
    7.5880   15.1551   26.0179 H    0  0  0  0  0  0  0  0  0  0  0  0
    6.9878   13.8973   27.0533 H    0  0  0  0  0  0  0  0  0  0  0  0
    3.1968   14.5279   24.5008 H    0  0  0  0  0  0  0  0  0  0  0  0
    3.6227   16.2120   24.3685 H    0  0  0  0  0  0  0  0  0  0  0  0
    1.4921   16.2628   25.2176 H    0  0  0  0  0  0  0  0  0  0  0  0
   -0.4179   13.7729   26.7203 H    0  0  0  0  0  0  0  0  0  0  0  0
   -0.3358   15.3352   25.9446 H    0  0  0  0  0  0  0  0  0  0  0  0
    1.6209   16.9871   27.7199 H    0  0  0  0  0  0  0  0  0  0  0  0
    2.4421   17.8669   26.4623 H    0  0  0  0  0  0  0  0  0  0  0  0
    3.6714   16.3871   28.7610 H    0  0  0  0  0  0  0  0  0  0  0  0
    5.4449   18.0245   28.0976 H    0  0  0  0  0  0  0  0  0  0  0  0
    4.7173   18.2547   26.4543 H    0  0  0  0  0  0  0  0  0  0  0  0
    5.7383   15.5485   27.5855 H    0  0  0  0  0  0  0  0  0  0  0  0
 18 19  1  0  0  0  0
 17 18  1  0  0  0  0
  7 17  2  0  0  0  0
  6  7  1  0  0  0  0
  5  6  2  0  0  0  0
  4  5  1  0  0  0  0
  3  4  2  0  0  0  0
  2  3  1  0  0  0  0
  1  2  1  0  0  0  0
 31  1  1  0  0  0  0
 32  1  1  0  0  0  0
 33  1  1  0  0  0  0
 34  5  1  0  0  0  0
  8  7  1  0  0  0  0
  9  8  1  0  0  0  0
 10  9  1  0  0  0  0
 35  9  1  0  0  0  0
 36  9  1  0  0  0  0
 11 10  1  0  0  0  0
 37 10  1  0  0  0  0
 38 10  1  0  0  0  0
 12 11  1  0  0  0  0
 13 12  2  0  0  0  0
 39 12  1  0  0  0  0
 14 13  1  0  0  0  0
 40 13  1  0  0  0  0
 15 14  1  0  0  0  0
 16 15  1  0  0  0  0
 41 16  1  0  0  0  0
 42 16  1  0  0  0  0
 43 18  1  0  0  0  0
 44 18  1  0  0  0  0
 20 19  2  0  0  0  0
 21 19  1  0  0  0  0
 22 21  1  0  0  0  0
 23 22  1  0  0  0  0
 45 22  1  0  0  0  0
 46 22  1  0  0  0  0
 24 23  1  0  0  0  0
 27 23  1  0  0  0  0
 47 23  1  0  0  0  0
 25 24  1  0  0  0  0
 26 24  2  0  0  0  0
 48 25  1  0  0  0  0
 49 25  1  0  0  0  0
 50 27  1  0  0  0  0
 51 27  1  0  0  0  0
 28 27  1  0  0  0  0
 29 28  1  0  0  0  0
 52 28  1  0  0  0  0
 53 29  1  0  0  0  0
 54 29  1  0  0  0  0
 30 29  1  0  0  0  0
 55 30  1  0  0  0  0
 15 11  2  0  0  0  0
 16  8  1  0  0  0  0
 17  3  1  0  0  0  0
 30 21  1  0  0  0  0
 30 28  1  0  0  0  0
M  END
>  <FittedScore>
-20.34

$$$$
