A71EV2A-x3897a_best-RMSD
  FITTED

 39 40     0  0  0  0  0  0  0999 V2000
    9.5197   16.8907   19.2839 O    0  0  0  0  0  0  0  0  0  0  0  0
   10.1571   15.9942   19.7977 C    0  0  0  0  0  0  0  0  0  0  0  0
   10.6634   14.9847   19.0454 N    0  0  0  0  0  0  0  0  0  0  0  0
   10.1732   15.8194   21.3163 C    0  0  0  0  0  0  0  0  0  0  0  0
   11.6034   15.9508   21.9012 C    0  0  0  0  0  0  0  0  0  0  0  0
   11.5674   15.7272   23.4294 C    0  0  0  0  0  0  0  0  0  0  0  0
   10.8743   14.3875   23.8068 C    0  0  0  0  0  0  0  0  0  0  0  0
    9.4514   14.5109   21.7503 C    0  0  0  0  0  0  0  0  0  0  0  0
    9.5197   14.1253   23.1931 N    0  0  0  0  0  0  0  0  0  0  0  0
    8.5254   13.3409   23.7513 C    0  0  0  0  0  0  0  0  0  0  0  0
    7.5253   13.0254   23.1165 O    0  0  0  0  0  0  0  0  0  0  0  0
    8.7418   12.7530   25.1583 C    0  0  0  0  0  0  0  0  0  0  0  0
    7.8061   11.5996   25.5188 C    0  0  0  0  0  0  0  0  0  0  0  0
    7.9825   10.3124   24.9632 C    0  0  0  0  0  0  0  0  0  0  0  0
    9.0495   10.0857   24.0910 O    0  0  0  0  0  0  0  0  0  0  0  0
    9.3411    8.8398   23.4135 C    0  0  0  0  0  0  0  0  0  0  0  0
    6.7236   11.8215   26.3965 C    0  0  0  0  0  0  0  0  0  0  0  0
    5.8476   10.8429   26.7437 N    0  0  0  0  0  0  0  0  0  0  0  0
    6.0133    9.6090   26.2020 C    0  0  0  0  0  0  0  0  0  0  0  0
    7.0500    9.3139   25.3080 C    0  0  0  0  0  0  0  0  0  0  0  0
   10.9028   14.0909   19.4735 H    0  0  0  0  0  0  0  0  0  0  0  0
   10.6240   15.0504   18.0356 H    0  0  0  0  0  0  0  0  0  0  0  0
    9.5837   16.6419   21.7410 H    0  0  0  0  0  0  0  0  0  0  0  0
   12.2791   15.2250   21.4424 H    0  0  0  0  0  0  0  0  0  0  0  0
   12.0006   16.9491   21.6853 H    0  0  0  0  0  0  0  0  0  0  0  0
   12.5903   15.7276   23.8169 H    0  0  0  0  0  0  0  0  0  0  0  0
   11.0443   16.5583   23.9144 H    0  0  0  0  0  0  0  0  0  0  0  0
   11.5377   13.5601   23.5432 H    0  0  0  0  0  0  0  0  0  0  0  0
   10.8197   14.4003   24.8958 H    0  0  0  0  0  0  0  0  0  0  0  0
    9.8481   13.6531   21.2039 H    0  0  0  0  0  0  0  0  0  0  0  0
    8.4182   14.6262   21.4117 H    0  0  0  0  0  0  0  0  0  0  0  0
    9.7581   12.3603   25.2618 H    0  0  0  0  0  0  0  0  0  0  0  0
    8.6540   13.5558   25.8965 H    0  0  0  0  0  0  0  0  0  0  0  0
    8.5058    8.5482   22.7691 H    0  0  0  0  0  0  0  0  0  0  0  0
    9.5357    8.0476   24.1410 H    0  0  0  0  0  0  0  0  0  0  0  0
   10.2294    8.9665   22.7943 H    0  0  0  0  0  0  0  0  0  0  0  0
    6.5751   12.8117   26.8110 H    0  0  0  0  0  0  0  0  0  0  0  0
    5.3149    8.8175   26.4642 H    0  0  0  0  0  0  0  0  0  0  0  0
    7.1096    8.3148   24.8878 H    0  0  0  0  0  0  0  0  0  0  0  0
  9 10  1  0  0  0  0
  7  9  1  0  0  0  0
  6  7  1  0  0  0  0
  5  6  1  0  0  0  0
  4  5  1  0  0  0  0
  2  4  1  0  0  0  0
  1  2  2  0  0  0  0
  3  2  1  0  0  0  0
 21  3  1  0  0  0  0
 22  3  1  0  0  0  0
 23  4  1  0  0  0  0
 24  5  1  0  0  0  0
 25  5  1  0  0  0  0
 26  6  1  0  0  0  0
 27  6  1  0  0  0  0
 28  7  1  0  0  0  0
 29  7  1  0  0  0  0
  8  4  1  0  0  0  0
 30  8  1  0  0  0  0
 31  8  1  0  0  0  0
 11 10  2  0  0  0  0
 12 10  1  0  0  0  0
 32 12  1  0  0  0  0
 33 12  1  0  0  0  0
 13 12  1  0  0  0  0
 14 13  1  0  0  0  0
 20 14  2  0  0  0  0
 15 14  1  0  0  0  0
 16 15  1  0  0  0  0
 34 16  1  0  0  0  0
 35 16  1  0  0  0  0
 36 16  1  0  0  0  0
 17 13  2  0  0  0  0
 37 17  1  0  0  0  0
 18 17  1  0  0  0  0
 19 18  2  0  0  0  0
 38 19  1  0  0  0  0
 39 20  1  0  0  0  0
  9  8  1  0  0  0  0
 20 19  1  0  0  0  0
M  END
>  <FittedScore>
-31.40

$$$$
