A71EV2A-x3897a_lowest-energy
  FITTED

 39 40     0  0  0  0  0  0  0999 V2000
    9.5118   16.8741   19.2970 O    0  0  0  0  0  0  0  0  0  0  0  0
   10.0852   15.9424   19.8286 C    0  0  0  0  0  0  0  0  0  0  0  0
   10.6511   14.9468   19.0983 N    0  0  0  0  0  0  0  0  0  0  0  0
   10.0692   15.7682   21.3463 C    0  0  0  0  0  0  0  0  0  0  0  0
   11.4966   15.8847   21.9407 C    0  0  0  0  0  0  0  0  0  0  0  0
   11.4305   15.7173   23.4696 C    0  0  0  0  0  0  0  0  0  0  0  0
   10.7163   14.3993   23.8729 C    0  0  0  0  0  0  0  0  0  0  0  0
    9.3338   14.4640   21.7803 C    0  0  0  0  0  0  0  0  0  0  0  0
    9.3762   14.1197   23.2354 N    0  0  0  0  0  0  0  0  0  0  0  0
    8.3615   13.3724   23.8136 C    0  0  0  0  0  0  0  0  0  0  0  0
    7.3691   13.0433   23.1770 O    0  0  0  0  0  0  0  0  0  0  0  0
    8.5448   12.8578   25.2531 C    0  0  0  0  0  0  0  0  0  0  0  0
    7.6431   11.6788   25.6133 C    0  0  0  0  0  0  0  0  0  0  0  0
    7.8511   10.4026   25.0434 C    0  0  0  0  0  0  0  0  0  0  0  0
    8.9151   10.2306   24.1604 O    0  0  0  0  0  0  0  0  0  0  0  0
    9.2745    9.0112   23.4767 C    0  0  0  0  0  0  0  0  0  0  0  0
    6.5800   11.8621   26.5202 C    0  0  0  0  0  0  0  0  0  0  0  0
    5.7371   10.8552   26.8728 N    0  0  0  0  0  0  0  0  0  0  0  0
    5.9230    9.6331   26.3089 C    0  0  0  0  0  0  0  0  0  0  0  0
    6.9592    9.3717   25.3973 C    0  0  0  0  0  0  0  0  0  0  0  0
   10.6348   15.0020   18.0846 H    0  0  0  0  0  0  0  0  0  0  0  0
   10.9445   14.0771   19.5481 H    0  0  0  0  0  0  0  0  0  0  0  0
    9.4813   16.5958   21.7642 H    0  0  0  0  0  0  0  0  0  0  0  0
   12.1573   15.1225   21.5219 H    0  0  0  0  0  0  0  0  0  0  0  0
   11.9242   16.8616   21.6956 H    0  0  0  0  0  0  0  0  0  0  0  0
   12.4453   15.7189   23.8761 H    0  0  0  0  0  0  0  0  0  0  0  0
   10.9080   16.5705   23.9132 H    0  0  0  0  0  0  0  0  0  0  0  0
   11.3820   13.5534   23.6696 H    0  0  0  0  0  0  0  0  0  0  0  0
   10.6265   14.4709   24.9573 H    0  0  0  0  0  0  0  0  0  0  0  0
    9.7402   13.6003   21.2499 H    0  0  0  0  0  0  0  0  0  0  0  0
    8.3050   14.5703   21.4216 H    0  0  0  0  0  0  0  0  0  0  0  0
    9.5651   12.5022   25.4256 H    0  0  0  0  0  0  0  0  0  0  0  0
    8.4003   13.6880   25.9500 H    0  0  0  0  0  0  0  0  0  0  0  0
    9.5965    8.2582   24.1959 H    0  0  0  0  0  0  0  0  0  0  0  0
   10.1038    9.2248   22.7957 H    0  0  0  0  0  0  0  0  0  0  0  0
    8.4327    8.6309   22.8890 H    0  0  0  0  0  0  0  0  0  0  0  0
    6.4206   12.8432   26.9600 H    0  0  0  0  0  0  0  0  0  0  0  0
    5.2483    8.8248   26.5804 H    0  0  0  0  0  0  0  0  0  0  0  0
    7.0521    8.3716   24.9813 H    0  0  0  0  0  0  0  0  0  0  0  0
  9 10  1  0  0  0  0
  7  9  1  0  0  0  0
  6  7  1  0  0  0  0
  5  6  1  0  0  0  0
  4  5  1  0  0  0  0
  2  4  1  0  0  0  0
  1  2  2  0  0  0  0
  3  2  1  0  0  0  0
 21  3  1  0  0  0  0
 22  3  1  0  0  0  0
 23  4  1  0  0  0  0
 24  5  1  0  0  0  0
 25  5  1  0  0  0  0
 26  6  1  0  0  0  0
 27  6  1  0  0  0  0
 28  7  1  0  0  0  0
 29  7  1  0  0  0  0
  8  4  1  0  0  0  0
 30  8  1  0  0  0  0
 31  8  1  0  0  0  0
 11 10  2  0  0  0  0
 12 10  1  0  0  0  0
 32 12  1  0  0  0  0
 33 12  1  0  0  0  0
 13 12  1  0  0  0  0
 14 13  1  0  0  0  0
 20 14  2  0  0  0  0
 15 14  1  0  0  0  0
 16 15  1  0  0  0  0
 34 16  1  0  0  0  0
 35 16  1  0  0  0  0
 36 16  1  0  0  0  0
 17 13  2  0  0  0  0
 37 17  1  0  0  0  0
 18 17  1  0  0  0  0
 19 18  2  0  0  0  0
 38 19  1  0  0  0  0
 39 20  1  0  0  0  0
  9  8  1  0  0  0  0
 20 19  1  0  0  0  0
M  END
>  <FittedScore>
-31.99

$$$$
