A71EV2A-x4880a_best-RMSD
  FITTED

 37 39     0  0  0  0  0  0  0999 V2000
   10.9854   15.2985   25.1961 O    0  0  0  0  0  0  0  0  0  0  0  0
   10.8399   15.4190   23.9948 C    0  0  0  0  0  0  0  0  0  0  0  0
   12.0680   15.7755   23.1474 C    0  0  0  0  0  0  0  0  0  0  0  0
   11.7586   16.2500   21.7072 C    0  0  0  0  0  0  0  0  0  0  0  0
    9.6273   15.1924   23.3791 N    0  0  0  0  0  0  0  0  0  0  0  0
    9.4030   15.3440   21.9094 C    0  0  0  0  0  0  0  0  0  0  0  0
   10.7089   15.3026   21.0740 C    0  0  0  0  0  0  0  0  0  0  0  0
   10.4800   15.6455   19.6049 C    0  0  0  0  0  0  0  0  0  0  0  0
    9.9078   16.6499   19.2232 O    0  0  0  0  0  0  0  0  0  0  0  0
   10.8869   14.7030   18.7299 N    0  0  0  0  0  0  0  0  0  0  0  0
    8.3860   14.8237   24.1206 C    0  0  0  0  0  0  0  0  0  0  0  0
    8.1662   13.3215   24.3460 C    0  0  0  0  0  0  0  0  0  0  0  0
    7.1003   12.9607   25.1987 C    0  0  0  0  0  0  0  0  0  0  0  0
    6.8134   11.6068   25.3829 C    0  0  0  0  0  0  0  0  0  0  0  0
    7.5391   10.6211   24.7350 C    0  0  0  0  0  0  0  0  0  0  0  0
    8.6145   10.9381   23.8979 C    0  0  0  0  0  0  0  0  0  0  0  0
    8.9275   12.2990   23.7071 C    0  0  0  0  0  0  0  0  0  0  0  0
    5.7286   10.9555   26.1448 C    0  0  0  0  0  0  0  0  0  0  0  0
    5.9071    9.6704   25.8690 C    0  0  0  0  0  0  0  0  0  0  0  0
    6.9750    9.4265   25.0654 N    0  0  0  0  0  0  0  0  0  0  0  0
   12.6347   16.5620   23.6560 H    0  0  0  0  0  0  0  0  0  0  0  0
   12.7276   14.9017   23.0980 H    0  0  0  0  0  0  0  0  0  0  0  0
   11.3906   17.2824   21.7273 H    0  0  0  0  0  0  0  0  0  0  0  0
   12.6756   16.2575   21.1103 H    0  0  0  0  0  0  0  0  0  0  0  0
    8.9063   16.3052   21.7414 H    0  0  0  0  0  0  0  0  0  0  0  0
    8.7266   14.5691   21.5339 H    0  0  0  0  0  0  0  0  0  0  0  0
   11.0866   14.2775   21.1520 H    0  0  0  0  0  0  0  0  0  0  0  0
   11.1574   13.7724   19.0523 H    0  0  0  0  0  0  0  0  0  0  0  0
   10.8464   14.8770   17.7300 H    0  0  0  0  0  0  0  0  0  0  0  0
    7.5064   15.2351   23.6157 H    0  0  0  0  0  0  0  0  0  0  0  0
    8.3894   15.3307   25.0894 H    0  0  0  0  0  0  0  0  0  0  0  0
    6.4970   13.7180   25.6939 H    0  0  0  0  0  0  0  0  0  0  0  0
    9.1841   10.1632   23.3936 H    0  0  0  0  0  0  0  0  0  0  0  0
    9.7575   12.5416   23.0498 H    0  0  0  0  0  0  0  0  0  0  0  0
    4.9383   11.3737   26.7620 H    0  0  0  0  0  0  0  0  0  0  0  0
    5.2902    8.8447   26.2136 H    0  0  0  0  0  0  0  0  0  0  0  0
    7.0822    8.5870   24.4906 H    0  0  0  0  0  0  0  0  0  0  0  0
 12 17  2  0  0  0  0
 11 12  1  0  0  0  0
  5 11  1  0  0  0  0
  2  5  1  0  0  0  0
  1  2  2  0  0  0  0
  3  2  1  0  0  0  0
 21  3  1  0  0  0  0
 22  3  1  0  0  0  0
  4  3  1  0  0  0  0
 23  4  1  0  0  0  0
 24  4  1  0  0  0  0
  6  5  1  0  0  0  0
 25  6  1  0  0  0  0
 26  6  1  0  0  0  0
  7  4  1  0  0  0  0
  8  7  1  0  0  0  0
 27  7  1  0  0  0  0
  9  8  2  0  0  0  0
 10  8  1  0  0  0  0
 28 10  1  0  0  0  0
 29 10  1  0  0  0  0
 30 11  1  0  0  0  0
 31 11  1  0  0  0  0
 13 12  1  0  0  0  0
 32 13  1  0  0  0  0
 14 13  2  0  0  0  0
 15 14  1  0  0  0  0
 20 15  1  0  0  0  0
 16 15  2  0  0  0  0
 33 16  1  0  0  0  0
 34 17  1  0  0  0  0
 18 14  1  0  0  0  0
 35 18  1  0  0  0  0
 19 18  2  0  0  0  0
 36 19  1  0  0  0  0
 37 20  1  0  0  0  0
  7  6  1  0  0  0  0
 17 16  1  0  0  0  0
 20 19  1  0  0  0  0
M  END
>  <FittedScore>
-37.02

$$$$
