A71EV2A-x4880a_lowest-energy
  FITTED

 37 39     0  0  0  0  0  0  0999 V2000
   10.8394   14.9404   25.2436 O    0  0  0  0  0  0  0  0  0  0  0  0
   10.6910   15.2776   24.0858 C    0  0  0  0  0  0  0  0  0  0  0  0
   11.9434   15.6206   23.2759 C    0  0  0  0  0  0  0  0  0  0  0  0
   11.6921   16.1364   21.8384 C    0  0  0  0  0  0  0  0  0  0  0  0
    9.4717   15.1738   23.4512 N    0  0  0  0  0  0  0  0  0  0  0  0
    9.2776   15.3641   21.9782 C    0  0  0  0  0  0  0  0  0  0  0  0
   10.5976   15.2783   21.1564 C    0  0  0  0  0  0  0  0  0  0  0  0
   10.4242   15.6775   19.6900 C    0  0  0  0  0  0  0  0  0  0  0  0
    9.9571   16.7409   19.3239 O    0  0  0  0  0  0  0  0  0  0  0  0
   10.8006   14.7417   18.7975 N    0  0  0  0  0  0  0  0  0  0  0  0
    8.2424   14.6797   24.1475 C    0  0  0  0  0  0  0  0  0  0  0  0
    8.1455   13.1487   24.2916 C    0  0  0  0  0  0  0  0  0  0  0  0
    9.0563   12.2592   23.6623 C    0  0  0  0  0  0  0  0  0  0  0  0
    8.8577   10.8891   23.8066 C    0  0  0  0  0  0  0  0  0  0  0  0
    7.7896   10.3794   24.5219 C    0  0  0  0  0  0  0  0  0  0  0  0
    6.8857   11.2190   25.1778 C    0  0  0  0  0  0  0  0  0  0  0  0
    7.0760   12.6106   25.0555 C    0  0  0  0  0  0  0  0  0  0  0  0
    9.5732    9.7584   23.1940 C    0  0  0  0  0  0  0  0  0  0  0  0
    8.8691    8.7086   23.5809 C    0  0  0  0  0  0  0  0  0  0  0  0
    7.8280    9.0264   24.3946 N    0  0  0  0  0  0  0  0  0  0  0  0
   12.5138   16.3762   23.8217 H    0  0  0  0  0  0  0  0  0  0  0  0
   12.5770   14.7314   23.2246 H    0  0  0  0  0  0  0  0  0  0  0  0
   11.3811   17.1853   21.8731 H    0  0  0  0  0  0  0  0  0  0  0  0
   12.6232   16.0945   21.2661 H    0  0  0  0  0  0  0  0  0  0  0  0
    8.8061   16.3392   21.8270 H    0  0  0  0  0  0  0  0  0  0  0  0
    8.5870   14.6150   21.5745 H    0  0  0  0  0  0  0  0  0  0  0  0
   10.9217   14.2292   21.2103 H    0  0  0  0  0  0  0  0  0  0  0  0
   11.0277   13.8000   19.1106 H    0  0  0  0  0  0  0  0  0  0  0  0
   10.7455   14.9293   17.8053 H    0  0  0  0  0  0  0  0  0  0  0  0
    7.3416   15.0425   23.6418 H    0  0  0  0  0  0  0  0  0  0  0  0
    8.1959   15.1321   25.1428 H    0  0  0  0  0  0  0  0  0  0  0  0
    9.8930   12.5981   23.0585 H    0  0  0  0  0  0  0  0  0  0  0  0
    6.0536   10.8163   25.7482 H    0  0  0  0  0  0  0  0  0  0  0  0
    6.3753   13.2794   25.5498 H    0  0  0  0  0  0  0  0  0  0  0  0
   10.4487    9.7485   22.5480 H    0  0  0  0  0  0  0  0  0  0  0  0
    9.0510    7.6722   23.3071 H    0  0  0  0  0  0  0  0  0  0  0  0
    6.9862    8.4526   24.4706 H    0  0  0  0  0  0  0  0  0  0  0  0
 12 17  2  0  0  0  0
 11 12  1  0  0  0  0
  5 11  1  0  0  0  0
  2  5  1  0  0  0  0
  1  2  2  0  0  0  0
  3  2  1  0  0  0  0
 21  3  1  0  0  0  0
 22  3  1  0  0  0  0
  4  3  1  0  0  0  0
 23  4  1  0  0  0  0
 24  4  1  0  0  0  0
  6  5  1  0  0  0  0
 25  6  1  0  0  0  0
 26  6  1  0  0  0  0
  7  4  1  0  0  0  0
  8  7  1  0  0  0  0
 27  7  1  0  0  0  0
  9  8  2  0  0  0  0
 10  8  1  0  0  0  0
 28 10  1  0  0  0  0
 29 10  1  0  0  0  0
 30 11  1  0  0  0  0
 31 11  1  0  0  0  0
 13 12  1  0  0  0  0
 32 13  1  0  0  0  0
 14 13  2  0  0  0  0
 15 14  1  0  0  0  0
 20 15  1  0  0  0  0
 16 15  2  0  0  0  0
 33 16  1  0  0  0  0
 34 17  1  0  0  0  0
 18 14  1  0  0  0  0
 35 18  1  0  0  0  0
 19 18  2  0  0  0  0
 36 19  1  0  0  0  0
 37 20  1  0  0  0  0
  7  6  1  0  0  0  0
 17 16  1  0  0  0  0
 20 19  1  0  0  0  0
M  END
>  <FittedScore>
-38.65

$$$$
