A71EV2A-x5512b_lowest-energy
  FITTED

 53 55     0  0  0  0  0  0  0999 V2000
   10.0994   16.9351   19.3562 O    0  0  0  0  0  0  0  0  0  0  0  0
   10.5439   15.8627   19.7164 C    0  0  0  0  0  0  0  0  0  0  0  0
   10.8952   14.9436   18.8002 N    0  0  0  0  0  0  0  0  0  0  0  0
   10.5186   15.3646   21.1638 C    0  0  0  0  0  0  0  0  0  0  0  0
   11.3883   16.2517   22.1062 C    0  0  0  0  0  0  0  0  0  0  0  0
   11.2463   15.7868   23.5819 C    0  0  0  0  0  0  0  0  0  0  0  0
    9.7601   15.6419   24.0077 C    0  0  0  0  0  0  0  0  0  0  0  0
    9.0523   15.2243   21.6858 C    0  0  0  0  0  0  0  0  0  0  0  0
    8.9612   14.7380   23.1072 N    0  0  0  0  0  0  0  0  0  0  0  0
    8.1614   13.6802   23.5011 C    0  0  0  0  0  0  0  0  0  0  0  0
    7.4799   13.0759   22.6905 O    0  0  0  0  0  0  0  0  0  0  0  0
    8.0825   13.2867   24.9896 C    0  0  0  0  0  0  0  0  0  0  0  0
    7.1742   12.0828   25.3107 C    0  0  0  0  0  0  0  0  0  0  0  0
    7.5454   10.7443   25.0305 C    0  0  0  0  0  0  0  0  0  0  0  0
    9.1264   10.3961   24.2520 S    0  0  0  0  0  0  0  0  0  0  0  0
    9.0518    8.7814   23.4228 C    0  0  0  0  0  0  0  0  0  0  0  0
    5.9310   12.3371   25.9248 C    0  0  0  0  0  0  0  0  0  0  0  0
    5.0402   11.3027   26.2899 C    0  0  0  0  0  0  0  0  0  0  0  0
    5.4359    9.9778   26.0073 C    0  0  0  0  0  0  0  0  0  0  0  0
    6.6644    9.7065   25.3890 C    0  0  0  0  0  0  0  0  0  0  0  0
    3.7131   11.6691   26.9489 C    0  0  0  0  0  0  0  0  0  0  0  0
    3.4188   12.8250   27.1973 O    0  0  0  0  0  0  0  0  0  0  0  0
    2.8866   10.6444   27.3177 N    0  0  0  0  0  0  0  0  0  0  0  0
    1.5476   10.7175   27.8341 C    0  0  0  0  0  0  0  0  0  0  0  0
    1.0897    9.7044   28.6949 C    0  0  0  0  0  0  0  0  0  0  0  0
   -0.2038    9.7995   29.2403 C    0  0  0  0  0  0  0  0  0  0  0  0
   -1.0435   10.8334   28.9477 N    0  0  0  0  0  0  0  0  0  0  0  0
   -0.6157   11.7958   28.0821 C    0  0  0  0  0  0  0  0  0  0  0  0
    0.6613   11.7635   27.4996 C    0  0  0  0  0  0  0  0  0  0  0  0
   10.8456   15.1699   17.8127 H    0  0  0  0  0  0  0  0  0  0  0  0
   11.0979   13.9896   19.0915 H    0  0  0  0  0  0  0  0  0  0  0  0
   10.9545   14.3586   21.2021 H    0  0  0  0  0  0  0  0  0  0  0  0
   12.4393   16.1951   21.8045 H    0  0  0  0  0  0  0  0  0  0  0  0
   11.0977   17.3039   22.0257 H    0  0  0  0  0  0  0  0  0  0  0  0
   11.7560   14.8274   23.7189 H    0  0  0  0  0  0  0  0  0  0  0  0
   11.7406   16.5052   24.2395 H    0  0  0  0  0  0  0  0  0  0  0  0
    9.7688   15.3183   25.0464 H    0  0  0  0  0  0  0  0  0  0  0  0
    9.2912   16.6320   24.0234 H    0  0  0  0  0  0  0  0  0  0  0  0
    8.5112   14.5741   20.9927 H    0  0  0  0  0  0  0  0  0  0  0  0
    8.5427   16.1908   21.6177 H    0  0  0  0  0  0  0  0  0  0  0  0
    9.0803   13.0829   25.3880 H    0  0  0  0  0  0  0  0  0  0  0  0
    7.7340   14.1598   25.5490 H    0  0  0  0  0  0  0  0  0  0  0  0
    8.2252    8.7500   22.7102 H    0  0  0  0  0  0  0  0  0  0  0  0
    8.9448    7.9785   24.1537 H    0  0  0  0  0  0  0  0  0  0  0  0
    9.9879    8.6335   22.8844 H    0  0  0  0  0  0  0  0  0  0  0  0
    5.6594   13.3719   26.1209 H    0  0  0  0  0  0  0  0  0  0  0  0
    4.8001    9.1335   26.2627 H    0  0  0  0  0  0  0  0  0  0  0  0
    6.9138    8.6689   25.2008 H    0  0  0  0  0  0  0  0  0  0  0  0
    3.2767    9.7043   27.3559 H    0  0  0  0  0  0  0  0  0  0  0  0
    1.7302    8.8652   28.9560 H    0  0  0  0  0  0  0  0  0  0  0  0
   -0.5485    9.0243   29.9202 H    0  0  0  0  0  0  0  0  0  0  0  0
   -1.2880   12.6099   27.8219 H    0  0  0  0  0  0  0  0  0  0  0  0
    0.9537   12.5413   26.7969 H    0  0  0  0  0  0  0  0  0  0  0  0
 12 13  1  0  0  0  0
 10 12  1  0  0  0  0
  9 10  1  0  0  0  0
  7  9  1  0  0  0  0
  6  7  1  0  0  0  0
  5  6  1  0  0  0  0
  4  5  1  0  0  0  0
  2  4  1  0  0  0  0
  1  2  2  0  0  0  0
  3  2  1  0  0  0  0
 30  3  1  0  0  0  0
 31  3  1  0  0  0  0
 32  4  1  0  0  0  0
 33  5  1  0  0  0  0
 34  5  1  0  0  0  0
 35  6  1  0  0  0  0
 36  6  1  0  0  0  0
 37  7  1  0  0  0  0
 38  7  1  0  0  0  0
  8  4  1  0  0  0  0
 39  8  1  0  0  0  0
 40  8  1  0  0  0  0
 11 10  2  0  0  0  0
 41 12  1  0  0  0  0
 42 12  1  0  0  0  0
 14 13  1  0  0  0  0
 20 14  2  0  0  0  0
 15 14  1  0  0  0  0
 16 15  1  0  0  0  0
 43 16  1  0  0  0  0
 44 16  1  0  0  0  0
 45 16  1  0  0  0  0
 17 13  2  0  0  0  0
 46 17  1  0  0  0  0
 18 17  1  0  0  0  0
 19 18  2  0  0  0  0
 47 19  1  0  0  0  0
 48 20  1  0  0  0  0
 21 18  1  0  0  0  0
 22 21  2  0  0  0  0
 23 21  1  0  0  0  0
 49 23  1  0  0  0  0
 24 23  1  0  0  0  0
 29 24  2  0  0  0  0
 25 24  1  0  0  0  0
 50 25  1  0  0  0  0
 26 25  2  0  0  0  0
 51 26  1  0  0  0  0
 27 26  1  0  0  0  0
 28 27  2  0  0  0  0
 52 28  1  0  0  0  0
 53 29  1  0  0  0  0
  9  8  1  0  0  0  0
 20 19  1  0  0  0  0
 29 28  1  0  0  0  0
M  END
>  <FittedScore>
-36.79

$$$$
