A71EV2A-x5512b_best-RMSD
  FITTED

 53 55     0  0  0  0  0  0  0999 V2000
   10.0538   16.9076   19.3890 O    0  0  0  0  0  0  0  0  0  0  0  0
   10.5061   15.8324   19.7376 C    0  0  0  0  0  0  0  0  0  0  0  0
   10.8869   14.9357   18.8087 N    0  0  0  0  0  0  0  0  0  0  0  0
   10.4733   15.3168   21.1827 C    0  0  0  0  0  0  0  0  0  0  0  0
   11.4368   16.1197   22.1102 C    0  0  0  0  0  0  0  0  0  0  0  0
   11.2999   15.6606   23.5884 C    0  0  0  0  0  0  0  0  0  0  0  0
    9.8205   15.5999   24.0561 C    0  0  0  0  0  0  0  0  0  0  0  0
    9.0197   15.2917   21.7548 C    0  0  0  0  0  0  0  0  0  0  0  0
    8.9545   14.7595   23.1596 N    0  0  0  0  0  0  0  0  0  0  0  0
    8.1638   13.6875   23.5298 C    0  0  0  0  0  0  0  0  0  0  0  0
    7.5060   13.0810   22.6971 O    0  0  0  0  0  0  0  0  0  0  0  0
    8.1135   13.2559   25.0105 C    0  0  0  0  0  0  0  0  0  0  0  0
    7.1886   12.0603   25.3226 C    0  0  0  0  0  0  0  0  0  0  0  0
    7.5539   10.7196   25.0464 C    0  0  0  0  0  0  0  0  0  0  0  0
    9.1422   10.3626   24.2801 S    0  0  0  0  0  0  0  0  0  0  0  0
    9.0901    8.7172   23.5128 C    0  0  0  0  0  0  0  0  0  0  0  0
    5.9368   12.3275   25.9103 C    0  0  0  0  0  0  0  0  0  0  0  0
    5.0311   11.3036   26.2682 C    0  0  0  0  0  0  0  0  0  0  0  0
    5.4238    9.9730   25.9965 C    0  0  0  0  0  0  0  0  0  0  0  0
    6.6592    9.6905   25.3952 C    0  0  0  0  0  0  0  0  0  0  0  0
    3.6979   11.6841   26.9128 C    0  0  0  0  0  0  0  0  0  0  0  0
    3.3979   12.8459   27.1251 O    0  0  0  0  0  0  0  0  0  0  0  0
    2.9041   10.6600   27.3446 N    0  0  0  0  0  0  0  0  0  0  0  0
    1.5776   10.6650   27.9078 C    0  0  0  0  0  0  0  0  0  0  0  0
    1.1972    9.5732   28.7091 C    0  0  0  0  0  0  0  0  0  0  0  0
   -0.0827    9.5535   29.2913 C    0  0  0  0  0  0  0  0  0  0  0  0
   -0.9840   10.5568   29.0978 N    0  0  0  0  0  0  0  0  0  0  0  0
   -0.6306   11.6033   28.2994 C    0  0  0  0  0  0  0  0  0  0  0  0
    0.6304   11.6883   27.6872 C    0  0  0  0  0  0  0  0  0  0  0  0
   10.8393   15.1764   17.8255 H    0  0  0  0  0  0  0  0  0  0  0  0
   11.0660   13.9725   19.0726 H    0  0  0  0  0  0  0  0  0  0  0  0
   10.8244   14.2782   21.2061 H    0  0  0  0  0  0  0  0  0  0  0  0
   12.4701   15.9716   21.7795 H    0  0  0  0  0  0  0  0  0  0  0  0
   11.2355   17.1936   22.0366 H    0  0  0  0  0  0  0  0  0  0  0  0
   11.7567   14.6727   23.7068 H    0  0  0  0  0  0  0  0  0  0  0  0
   11.8581   16.3407   24.2340 H    0  0  0  0  0  0  0  0  0  0  0  0
    9.8332   15.2595   25.0867 H    0  0  0  0  0  0  0  0  0  0  0  0
    9.4178   16.6164   24.0989 H    0  0  0  0  0  0  0  0  0  0  0  0
    8.3914   14.7271   21.0589 H    0  0  0  0  0  0  0  0  0  0  0  0
    8.6049   16.3065   21.7416 H    0  0  0  0  0  0  0  0  0  0  0  0
    9.1180   13.0222   25.3738 H    0  0  0  0  0  0  0  0  0  0  0  0
    7.7976   14.1124   25.6122 H    0  0  0  0  0  0  0  0  0  0  0  0
    8.9940    7.9450   24.2765 H    0  0  0  0  0  0  0  0  0  0  0  0
   10.0227    8.5461   22.9733 H    0  0  0  0  0  0  0  0  0  0  0  0
    8.2600    8.6567   22.8062 H    0  0  0  0  0  0  0  0  0  0  0  0
    5.6670   13.3650   26.0922 H    0  0  0  0  0  0  0  0  0  0  0  0
    4.7784    9.1334   26.2414 H    0  0  0  0  0  0  0  0  0  0  0  0
    6.9062    8.6494   25.2122 H    0  0  0  0  0  0  0  0  0  0  0  0
    3.3324    9.7386   27.3912 H    0  0  0  0  0  0  0  0  0  0  0  0
    1.8871    8.7524   28.8940 H    0  0  0  0  0  0  0  0  0  0  0  0
   -0.3633    8.7096   29.9166 H    0  0  0  0  0  0  0  0  0  0  0  0
   -1.3473   12.4018   28.1306 H    0  0  0  0  0  0  0  0  0  0  0  0
    0.8485   12.5431   27.0524 H    0  0  0  0  0  0  0  0  0  0  0  0
 12 13  1  0  0  0  0
 10 12  1  0  0  0  0
  9 10  1  0  0  0  0
  7  9  1  0  0  0  0
  6  7  1  0  0  0  0
  5  6  1  0  0  0  0
  4  5  1  0  0  0  0
  2  4  1  0  0  0  0
  1  2  2  0  0  0  0
  3  2  1  0  0  0  0
 30  3  1  0  0  0  0
 31  3  1  0  0  0  0
 32  4  1  0  0  0  0
 33  5  1  0  0  0  0
 34  5  1  0  0  0  0
 35  6  1  0  0  0  0
 36  6  1  0  0  0  0
 37  7  1  0  0  0  0
 38  7  1  0  0  0  0
  8  4  1  0  0  0  0
 39  8  1  0  0  0  0
 40  8  1  0  0  0  0
 11 10  2  0  0  0  0
 41 12  1  0  0  0  0
 42 12  1  0  0  0  0
 14 13  1  0  0  0  0
 20 14  2  0  0  0  0
 15 14  1  0  0  0  0
 16 15  1  0  0  0  0
 43 16  1  0  0  0  0
 44 16  1  0  0  0  0
 45 16  1  0  0  0  0
 17 13  2  0  0  0  0
 46 17  1  0  0  0  0
 18 17  1  0  0  0  0
 19 18  2  0  0  0  0
 47 19  1  0  0  0  0
 48 20  1  0  0  0  0
 21 18  1  0  0  0  0
 22 21  2  0  0  0  0
 23 21  1  0  0  0  0
 49 23  1  0  0  0  0
 24 23  1  0  0  0  0
 29 24  2  0  0  0  0
 25 24  1  0  0  0  0
 50 25  1  0  0  0  0
 26 25  2  0  0  0  0
 51 26  1  0  0  0  0
 27 26  1  0  0  0  0
 28 27  2  0  0  0  0
 52 28  1  0  0  0  0
 53 29  1  0  0  0  0
  9  8  1  0  0  0  0
 20 19  1  0  0  0  0
 29 28  1  0  0  0  0
M  END
>  <FittedScore>
-37.01

$$$$
