A71EV2A-x4992a_lowest-energy
  FITTED

 37 39     0  0  0  0  0  0  0999 V2000
    9.4309   16.8180   19.2870 O    0  0  0  0  0  0  0  0  0  0  0  0
   10.3528   16.1266   19.5898 C    0  0  0  0  0  0  0  0  0  0  0  0
   11.1464   15.7813   18.6167 N    0  0  0  0  0  0  0  0  0  0  0  0
   10.6833   15.3611   20.8685 C    0  0  0  0  0  0  0  0  0  0  0  0
    9.5078   14.4930   21.4040 C    0  0  0  0  0  0  0  0  0  0  0  0
   11.1287   16.4361   21.8399 C    0  0  0  0  0  0  0  0  0  0  0  0
   11.2487   15.8415   23.2077 C    0  0  0  0  0  0  0  0  0  0  0  0
   10.3634   14.8256   23.7635 C    0  0  0  0  0  0  0  0  0  0  0  0
   10.0828   16.2440   24.0574 C    0  0  0  0  0  0  0  0  0  0  0  0
    9.7667   13.9446   22.7842 N    0  0  0  0  0  0  0  0  0  0  0  0
    9.0956   12.9254   23.3757 C    0  0  0  0  0  0  0  0  0  0  0  0
    8.8589   11.9797   22.7038 O    0  0  0  0  0  0  0  0  0  0  0  0
    8.1683   13.3026   24.5762 C    0  0  0  0  0  0  0  0  0  0  0  0
    7.3739   12.2243   25.2938 C    0  0  0  0  0  0  0  0  0  0  0  0
    6.2741   12.4310   26.0639 C    0  0  0  0  0  0  0  0  0  0  0  0
    7.6006   10.8443   25.3515 C    0  0  0  0  0  0  0  0  0  0  0  0
    6.5161   10.1489   26.1115 N    0  0  0  0  0  0  0  0  0  0  0  0
    5.8087   11.2336   26.5080 N    0  0  0  0  0  0  0  0  0  0  0  0
    4.5355   11.1215   27.2542 C    0  0  0  0  0  0  0  0  0  0  0  0
   10.8367   16.1210   17.7261 H    0  0  0  0  0  0  0  0  0  0  0  0
   11.8746   15.1168   18.8182 H    0  0  0  0  0  0  0  0  0  0  0  0
   11.5792   14.7273   20.7246 H    0  0  0  0  0  0  0  0  0  0  0  0
    8.6037   15.1055   21.4300 H    0  0  0  0  0  0  0  0  0  0  0  0
    9.3208   13.6964   20.6858 H    0  0  0  0  0  0  0  0  0  0  0  0
   10.4060   17.2414   21.8497 H    0  0  0  0  0  0  0  0  0  0  0  0
   12.0424   16.8883   21.5013 H    0  0  0  0  0  0  0  0  0  0  0  0
   12.2305   15.8751   23.6324 H    0  0  0  0  0  0  0  0  0  0  0  0
   10.7637   14.0919   24.4529 H    0  0  0  0  0  0  0  0  0  0  0  0
    9.1860   16.6706   23.5996 H    0  0  0  0  0  0  0  0  0  0  0  0
   10.3870   16.7075   24.9735 H    0  0  0  0  0  0  0  0  0  0  0  0
    8.7288   13.8315   25.3401 H    0  0  0  0  0  0  0  0  0  0  0  0
    7.4447   13.9972   24.1782 H    0  0  0  0  0  0  0  0  0  0  0  0
    5.8467   13.3926   26.3010 H    0  0  0  0  0  0  0  0  0  0  0  0
    8.4315   10.3129   24.9158 H    0  0  0  0  0  0  0  0  0  0  0  0
    4.3843   10.1296   27.6847 H    0  0  0  0  0  0  0  0  0  0  0  0
    3.6772   11.3076   26.6052 H    0  0  0  0  0  0  0  0  0  0  0  0
    4.4877   11.8475   28.0733 H    0  0  0  0  0  0  0  0  0  0  0  0
  5 10  1  0  0  0  0
  4  5  1  0  0  0  0
  2  4  1  0  0  0  0
  1  2  2  0  0  0  0
  3  2  1  0  0  0  0
 20  3  1  0  0  0  0
 21  3  1  0  0  0  0
 22  4  1  0  0  0  0
 23  5  1  0  0  0  0
 24  5  1  0  0  0  0
  6  4  1  0  0  0  0
 25  6  1  0  0  0  0
 26  6  1  0  0  0  0
  7  6  1  0  0  0  0
  9  7  1  0  0  0  0
 27  7  1  0  0  0  0
  8  9  1  0  0  0  0
 28  8  1  0  0  0  0
 29  9  1  0  0  0  0
 30  9  1  0  0  0  0
 11 10  1  0  0  0  0
 12 11  2  0  0  0  0
 13 11  1  0  0  0  0
 31 13  1  0  0  0  0
 32 13  1  0  0  0  0
 14 13  1  0  0  0  0
 15 14  2  0  0  0  0
 33 15  1  0  0  0  0
 16 14  1  0  0  0  0
 34 16  1  0  0  0  0
 17 16  2  0  0  0  0
 18 15  1  0  0  0  0
 19 18  1  0  0  0  0
 35 19  1  0  0  0  0
 36 19  1  0  0  0  0
 37 19  1  0  0  0  0
  8  7  1  0  0  0  0
 10  8  1  0  0  0  0
 18 17  1  0  0  0  0
M  END
>  <FittedScore>
-23.97

$$$$
