A71EV2A-x4992a_best-RMSD
  FITTED

 37 39     0  0  0  0  0  0  0999 V2000
   10.0721   16.7405   19.4591 O    0  0  0  0  0  0  0  0  0  0  0  0
   10.5219   15.6506   19.7686 C    0  0  0  0  0  0  0  0  0  0  0  0
   10.9115   14.7737   18.8164 N    0  0  0  0  0  0  0  0  0  0  0  0
   10.4339   15.0880   21.1932 C    0  0  0  0  0  0  0  0  0  0  0  0
    9.0357   15.3284   21.8732 C    0  0  0  0  0  0  0  0  0  0  0  0
   11.5818   15.6138   22.1158 C    0  0  0  0  0  0  0  0  0  0  0  0
   11.4151   15.0024   23.5312 C    0  0  0  0  0  0  0  0  0  0  0  0
   10.0546   14.6244   24.0582 C    0  0  0  0  0  0  0  0  0  0  0  0
   10.7322   15.8340   24.5961 C    0  0  0  0  0  0  0  0  0  0  0  0
    8.9219   14.4614   23.0706 N    0  0  0  0  0  0  0  0  0  0  0  0
    8.3251   13.2472   22.9306 C    0  0  0  0  0  0  0  0  0  0  0  0
    7.2239   13.1882   22.4094 O    0  0  0  0  0  0  0  0  0  0  0  0
    9.1470   11.9629   23.1165 C    0  0  0  0  0  0  0  0  0  0  0  0
    8.4924   11.0562   24.1349 C    0  0  0  0  0  0  0  0  0  0  0  0
    7.6167   11.4402   25.1307 C    0  0  0  0  0  0  0  0  0  0  0  0
    8.4645    9.6761   24.0904 C    0  0  0  0  0  0  0  0  0  0  0  0
    7.5026    9.1560   25.0777 N    0  0  0  0  0  0  0  0  0  0  0  0
    7.0588   10.3169   25.6263 N    0  0  0  0  0  0  0  0  0  0  0  0
    6.0956   10.2788   26.7296 C    0  0  0  0  0  0  0  0  0  0  0  0
   11.0584   13.7875   19.0606 H    0  0  0  0  0  0  0  0  0  0  0  0
   11.0141   15.0840   17.8571 H    0  0  0  0  0  0  0  0  0  0  0  0
   10.5654   13.9935   21.1234 H    0  0  0  0  0  0  0  0  0  0  0  0
    8.9289   16.3828   22.1555 H    0  0  0  0  0  0  0  0  0  0  0  0
    8.2482   15.1431   21.1354 H    0  0  0  0  0  0  0  0  0  0  0  0
   11.5948   16.7059   22.1393 H    0  0  0  0  0  0  0  0  0  0  0  0
   12.5447   15.2944   21.6969 H    0  0  0  0  0  0  0  0  0  0  0  0
   12.2365   14.3357   23.8203 H    0  0  0  0  0  0  0  0  0  0  0  0
    9.8290   13.8631   24.7928 H    0  0  0  0  0  0  0  0  0  0  0  0
   10.3394   16.8126   24.3316 H    0  0  0  0  0  0  0  0  0  0  0  0
   11.1624   15.7774   25.6021 H    0  0  0  0  0  0  0  0  0  0  0  0
    9.1622   11.4499   22.1495 H    0  0  0  0  0  0  0  0  0  0  0  0
   10.2053   12.0988   23.3549 H    0  0  0  0  0  0  0  0  0  0  0  0
    7.3773   12.4573   25.4256 H    0  0  0  0  0  0  0  0  0  0  0  0
    8.9959    9.0313   23.4043 H    0  0  0  0  0  0  0  0  0  0  0  0
    6.6179   10.4667   27.6701 H    0  0  0  0  0  0  0  0  0  0  0  0
    5.5978    9.3117   26.8268 H    0  0  0  0  0  0  0  0  0  0  0  0
    5.3256   11.0419   26.6214 H    0  0  0  0  0  0  0  0  0  0  0  0
  5 10  1  0  0  0  0
  4  5  1  0  0  0  0
  2  4  1  0  0  0  0
  1  2  2  0  0  0  0
  3  2  1  0  0  0  0
 20  3  1  0  0  0  0
 21  3  1  0  0  0  0
 22  4  1  0  0  0  0
 23  5  1  0  0  0  0
 24  5  1  0  0  0  0
  6  4  1  0  0  0  0
 25  6  1  0  0  0  0
 26  6  1  0  0  0  0
  7  6  1  0  0  0  0
  9  7  1  0  0  0  0
 27  7  1  0  0  0  0
  8  9  1  0  0  0  0
 28  8  1  0  0  0  0
 29  9  1  0  0  0  0
 30  9  1  0  0  0  0
 11 10  1  0  0  0  0
 12 11  2  0  0  0  0
 13 11  1  0  0  0  0
 31 13  1  0  0  0  0
 32 13  1  0  0  0  0
 14 13  1  0  0  0  0
 15 14  2  0  0  0  0
 33 15  1  0  0  0  0
 16 14  1  0  0  0  0
 34 16  1  0  0  0  0
 17 16  2  0  0  0  0
 18 15  1  0  0  0  0
 19 18  1  0  0  0  0
 35 19  1  0  0  0  0
 36 19  1  0  0  0  0
 37 19  1  0  0  0  0
  8  7  1  0  0  0  0
 10  8  1  0  0  0  0
 18 17  1  0  0  0  0
M  END
>  <FittedScore>
-28.22

$$$$
