A71EV2A-x3188a_best-RMSD
  FITTED

 42 44     0  0  0  0  0  0  0999 V2000
    9.8152   16.8183   19.0715 O    0  0  0  0  0  0  0  0  0  0  0  0
   10.3922   15.8168   19.4616 C    0  0  0  0  0  0  0  0  0  0  0  0
   10.8145   14.8834   18.5872 N    0  0  0  0  0  0  0  0  0  0  0  0
   10.5112   15.4163   20.9346 C    0  0  0  0  0  0  0  0  0  0  0  0
   11.3365   16.4629   21.7293 C    0  0  0  0  0  0  0  0  0  0  0  0
   11.3965   16.0812   23.2272 C    0  0  0  0  0  0  0  0  0  0  0  0
    9.9804   15.8323   23.8122 C    0  0  0  0  0  0  0  0  0  0  0  0
    9.1091   15.1821   21.5776 C    0  0  0  0  0  0  0  0  0  0  0  0
    9.1296   14.8497   23.0479 N    0  0  0  0  0  0  0  0  0  0  0  0
    8.2921   13.8959   23.6035 C    0  0  0  0  0  0  0  0  0  0  0  0
    7.5414   13.2263   22.9053 O    0  0  0  0  0  0  0  0  0  0  0  0
    8.3069   13.6831   25.1386 C    0  0  0  0  0  0  0  0  0  0  0  0
    7.5931   12.4243   25.6161 C    0  0  0  0  0  0  0  0  0  0  0  0
    6.5347   12.3960   26.4555 C    0  0  0  0  0  0  0  0  0  0  0  0
    5.9010   11.2679   26.8444 C    0  0  0  0  0  0  0  0  0  0  0  0
    6.2495   10.0364   26.4296 C    0  0  0  0  0  0  0  0  0  0  0  0
    7.4104    9.9449   25.4978 C    0  0  0  0  0  0  0  0  0  0  0  0
    8.0707   11.0926   25.1414 C    0  0  0  0  0  0  0  0  0  0  0  0
    9.0955   10.7276   24.3095 C    0  0  0  0  0  0  0  0  0  0  0  0
    7.9888    8.7564   24.8535 N    0  0  0  0  0  0  0  0  0  0  0  0
    9.0047    9.3764   24.1791 N    0  0  0  0  0  0  0  0  0  0  0  0
    9.8438    8.5771   23.2925 C    0  0  0  0  0  0  0  0  0  0  0  0
   10.7192   15.0538   17.5918 H    0  0  0  0  0  0  0  0  0  0  0  0
   11.0922   13.9587   18.9176 H    0  0  0  0  0  0  0  0  0  0  0  0
   11.0532   14.4649   21.0130 H    0  0  0  0  0  0  0  0  0  0  0  0
   12.3502   16.5267   21.3190 H    0  0  0  0  0  0  0  0  0  0  0  0
   10.8893   17.4587   21.6239 H    0  0  0  0  0  0  0  0  0  0  0  0
   12.0114   15.1852   23.3517 H    0  0  0  0  0  0  0  0  0  0  0  0
   11.8888   16.8860   23.7787 H    0  0  0  0  0  0  0  0  0  0  0  0
   10.1483   15.5482   24.8466 H    0  0  0  0  0  0  0  0  0  0  0  0
    9.4439   16.7840   23.8643 H    0  0  0  0  0  0  0  0  0  0  0  0
    8.6266   14.3967   20.9873 H    0  0  0  0  0  0  0  0  0  0  0  0
    8.4856   16.0732   21.4422 H    0  0  0  0  0  0  0  0  0  0  0  0
    9.3346   13.5777   25.4954 H    0  0  0  0  0  0  0  0  0  0  0  0
    7.8871   14.5674   25.6263 H    0  0  0  0  0  0  0  0  0  0  0  0
    6.1586   13.3401   26.8463 H    0  0  0  0  0  0  0  0  0  0  0  0
    5.0561   11.3558   27.5224 H    0  0  0  0  0  0  0  0  0  0  0  0
    5.6872    9.1666   26.7640 H    0  0  0  0  0  0  0  0  0  0  0  0
    9.8250   11.3735   23.8282 H    0  0  0  0  0  0  0  0  0  0  0  0
   10.2987    9.1836   22.5032 H    0  0  0  0  0  0  0  0  0  0  0  0
    9.2761    7.7905   22.7869 H    0  0  0  0  0  0  0  0  0  0  0  0
   10.6544    8.1010   23.8460 H    0  0  0  0  0  0  0  0  0  0  0  0
  9 10  1  0  0  0  0
  7  9  1  0  0  0  0
  6  7  1  0  0  0  0
  5  6  1  0  0  0  0
  4  5  1  0  0  0  0
  2  4  1  0  0  0  0
  1  2  2  0  0  0  0
  3  2  1  0  0  0  0
 23  3  1  0  0  0  0
 24  3  1  0  0  0  0
 25  4  1  0  0  0  0
 26  5  1  0  0  0  0
 27  5  1  0  0  0  0
 28  6  1  0  0  0  0
 29  6  1  0  0  0  0
 30  7  1  0  0  0  0
 31  7  1  0  0  0  0
  8  4  1  0  0  0  0
 32  8  1  0  0  0  0
 33  8  1  0  0  0  0
 11 10  2  0  0  0  0
 12 10  1  0  0  0  0
 34 12  1  0  0  0  0
 35 12  1  0  0  0  0
 13 12  1  0  0  0  0
 14 13  2  0  0  0  0
 36 14  1  0  0  0  0
 15 14  1  0  0  0  0
 37 15  1  0  0  0  0
 16 15  2  0  0  0  0
 38 16  1  0  0  0  0
 17 16  1  0  0  0  0
 18 13  1  0  0  0  0
 19 18  2  0  0  0  0
 39 19  1  0  0  0  0
 20 17  2  0  0  0  0
 21 19  1  0  0  0  0
 22 21  1  0  0  0  0
 40 22  1  0  0  0  0
 41 22  1  0  0  0  0
 42 22  1  0  0  0  0
  9  8  1  0  0  0  0
 18 17  1  0  0  0  0
 21 20  1  0  0  0  0
M  END
>  <FittedScore>
-30.28

$$$$
