A71EV2A-x3280a_lowest-energy
  FITTED

 37 39     0  0  0  0  0  0  0999 V2000
   12.7045   16.1512   21.6144 F    0  0  0  0  0  0  0  0  0  0  0  0
   11.7319   15.2386   21.4705 C    0  0  0  0  0  0  0  0  0  0  0  0
   12.1840   14.3902   20.5313 F    0  0  0  0  0  0  0  0  0  0  0  0
   10.4615   15.9351   20.9597 C    0  0  0  0  0  0  0  0  0  0  0  0
   10.0548   17.0695   21.5934 N    0  0  0  0  0  0  0  0  0  0  0  0
    8.9643   17.7550   21.1745 C    0  0  0  0  0  0  0  0  0  0  0  0
    8.2347   17.3364   20.0622 C    0  0  0  0  0  0  0  0  0  0  0  0
    8.6406   16.1736   19.3891 C    0  0  0  0  0  0  0  0  0  0  0  0
    9.7443   15.4536   19.8508 C    0  0  0  0  0  0  0  0  0  0  0  0
   11.6208   14.5350   22.8391 C    0  0  0  0  0  0  0  0  0  0  0  0
   10.6089   13.4735   22.8784 N    0  0  0  0  0  0  0  0  0  0  0  0
    9.5766   13.3524   23.7542 C    0  0  0  0  0  0  0  0  0  0  0  0
    9.1722   14.2594   24.4547 O    0  0  0  0  0  0  0  0  0  0  0  0
    9.0936   12.0220   23.9274 C    0  0  0  0  0  0  0  0  0  0  0  0
    9.5659   10.9686   23.3211 N    0  0  0  0  0  0  0  0  0  0  0  0
    8.0256   11.5440   24.8506 C    0  0  0  0  0  0  0  0  0  0  0  0
    7.9578   10.1784   24.6650 C    0  0  0  0  0  0  0  0  0  0  0  0
    8.8901    9.8660   23.7277 N    0  0  0  0  0  0  0  0  0  0  0  0
    9.3988    8.5502   23.3448 C    0  0  0  0  0  0  0  0  0  0  0  0
    7.0561    9.3775   25.3752 C    0  0  0  0  0  0  0  0  0  0  0  0
    6.2279    9.9959   26.3268 C    0  0  0  0  0  0  0  0  0  0  0  0
    6.3032   11.3884   26.5376 C    0  0  0  0  0  0  0  0  0  0  0  0
    7.2026   12.1802   25.7953 C    0  0  0  0  0  0  0  0  0  0  0  0
    8.6627   18.6544   21.7047 H    0  0  0  0  0  0  0  0  0  0  0  0
    7.3689   17.8953   19.7227 H    0  0  0  0  0  0  0  0  0  0  0  0
    8.0891   15.8219   18.5181 H    0  0  0  0  0  0  0  0  0  0  0  0
   10.0241   14.5387   19.3362 H    0  0  0  0  0  0  0  0  0  0  0  0
   12.5809   14.0761   23.0905 H    0  0  0  0  0  0  0  0  0  0  0  0
   11.4381   15.2823   23.6165 H    0  0  0  0  0  0  0  0  0  0  0  0
   10.8030   12.6677   22.2878 H    0  0  0  0  0  0  0  0  0  0  0  0
    8.6189    7.7872   23.3497 H    0  0  0  0  0  0  0  0  0  0  0  0
   10.1902    8.2241   24.0238 H    0  0  0  0  0  0  0  0  0  0  0  0
    9.8212    8.5580   22.3347 H    0  0  0  0  0  0  0  0  0  0  0  0
    7.0007    8.3051   25.2066 H    0  0  0  0  0  0  0  0  0  0  0  0
    5.5262    9.3968   26.8996 H    0  0  0  0  0  0  0  0  0  0  0  0
    5.6628   11.8594   27.2783 H    0  0  0  0  0  0  0  0  0  0  0  0
    7.2410   13.2523   25.9694 H    0  0  0  0  0  0  0  0  0  0  0  0
 11 12  1  0  0  0  0
 10 11  1  0  0  0  0
  2 10  1  0  0  0  0
  1  2  1  0  0  0  0
  3  2  1  0  0  0  0
  4  2  1  0  0  0  0
  9  4  2  0  0  0  0
  5  4  1  0  0  0  0
  6  5  2  0  0  0  0
 24  6  1  0  0  0  0
  7  6  1  0  0  0  0
 25  7  1  0  0  0  0
  8  7  2  0  0  0  0
 26  8  1  0  0  0  0
 27  9  1  0  0  0  0
 28 10  1  0  0  0  0
 29 10  1  0  0  0  0
 30 11  1  0  0  0  0
 13 12  2  0  0  0  0
 14 12  1  0  0  0  0
 15 14  2  0  0  0  0
 16 14  1  0  0  0  0
 23 16  2  0  0  0  0
 17 16  1  0  0  0  0
 18 15  1  0  0  0  0
 19 18  1  0  0  0  0
 31 19  1  0  0  0  0
 32 19  1  0  0  0  0
 33 19  1  0  0  0  0
 20 17  2  0  0  0  0
 34 20  1  0  0  0  0
 21 20  1  0  0  0  0
 35 21  1  0  0  0  0
 22 21  2  0  0  0  0
 36 22  1  0  0  0  0
 37 23  1  0  0  0  0
  9  8  1  0  0  0  0
 18 17  1  0  0  0  0
 23 22  1  0  0  0  0
M  END
>  <FittedScore>
-28.02

$$$$
