A71EV2A-x7154a_lowest-energy
  FITTED

 62 65     0  0  0  0  0  0  0999 V2000
    9.6513    8.4637   23.4280 C    0  0  0  0  0  0  0  0  0  0  0  0
    9.4695   10.2441   23.7591 S    0  0  0  0  0  0  0  0  0  0  0  0
    8.1093   10.4406   24.9139 C    0  0  0  0  0  0  0  0  0  0  0  0
    7.3808    9.3390   25.2426 N    0  0  0  0  0  0  0  0  0  0  0  0
    6.3251    9.5015   26.0844 C    0  0  0  0  0  0  0  0  0  0  0  0
    5.9050   10.6910   26.5845 N    0  0  0  0  0  0  0  0  0  0  0  0
    6.6043   11.8142   26.2593 C    0  0  0  0  0  0  0  0  0  0  0  0
    6.1047   13.0052   26.7703 N    0  0  0  0  0  0  0  0  0  0  0  0
    5.5217   14.0752   25.9145 C    0  0  0  0  0  0  0  0  0  0  0  0
    6.2196   15.4545   26.1375 C    0  0  0  0  0  0  0  0  0  0  0  0
    6.4138   15.8115   27.6476 C    0  0  0  0  0  0  0  0  0  0  0  0
    7.2519   17.0350   27.8381 N    0  0  0  0  0  0  0  0  0  0  0  0
    6.6304   18.2495   28.3606 C    0  0  0  0  0  0  0  0  0  0  0  0
    7.8415   19.1747   28.5727 C    0  0  0  0  0  0  0  0  0  0  0  0
    8.9408   18.4662   27.9325 O    0  0  0  0  0  0  0  0  0  0  0  0
    8.5720   17.2109   27.6029 C    0  0  0  0  0  0  0  0  0  0  0  0
    9.3416   16.3759   27.1644 O    0  0  0  0  0  0  0  0  0  0  0  0
    6.9205   14.5940   28.4987 C    0  0  0  0  0  0  0  0  0  0  0  0
    6.1214   13.2928   28.2251 C    0  0  0  0  0  0  0  0  0  0  0  0
    7.7731   11.7206   25.4392 C    0  0  0  0  0  0  0  0  0  0  0  0
    8.6335   12.9410   25.0952 C    0  0  0  0  0  0  0  0  0  0  0  0
    8.3029   13.5714   23.7302 C    0  0  0  0  0  0  0  0  0  0  0  0
    7.4120   13.0942   23.0435 O    0  0  0  0  0  0  0  0  0  0  0  0
    9.0807   14.6134   23.2773 N    0  0  0  0  0  0  0  0  0  0  0  0
   10.1242   15.3607   24.0636 C    0  0  0  0  0  0  0  0  0  0  0  0
   11.5327   15.2980   23.4176 C    0  0  0  0  0  0  0  0  0  0  0  0
   11.5108   15.7591   21.9388 C    0  0  0  0  0  0  0  0  0  0  0  0
   10.3879   15.0260   21.1536 C    0  0  0  0  0  0  0  0  0  0  0  0
   10.3330   15.5218   19.7191 C    0  0  0  0  0  0  0  0  0  0  0  0
   10.8932   14.7040   18.8036 N    0  0  0  0  0  0  0  0  0  0  0  0
    9.7631   16.5441   19.3821 O    0  0  0  0  0  0  0  0  0  0  0  0
    9.0109   15.1323   21.8759 C    0  0  0  0  0  0  0  0  0  0  0  0
   10.4202    8.3154   22.6661 H    0  0  0  0  0  0  0  0  0  0  0  0
    8.7187    8.0497   23.0452 H    0  0  0  0  0  0  0  0  0  0  0  0
    9.9416    7.9434   24.3436 H    0  0  0  0  0  0  0  0  0  0  0  0
    5.7648    8.6123   26.3680 H    0  0  0  0  0  0  0  0  0  0  0  0
    4.4568   14.1890   26.1292 H    0  0  0  0  0  0  0  0  0  0  0  0
    5.5695   13.8240   24.8551 H    0  0  0  0  0  0  0  0  0  0  0  0
    5.6224   16.2370   25.6611 H    0  0  0  0  0  0  0  0  0  0  0  0
    7.1766   15.4753   25.6188 H    0  0  0  0  0  0  0  0  0  0  0  0
    5.4074   16.0283   28.0237 H    0  0  0  0  0  0  0  0  0  0  0  0
    6.1061   18.0623   29.3028 H    0  0  0  0  0  0  0  0  0  0  0  0
    5.9297   18.6709   27.6328 H    0  0  0  0  0  0  0  0  0  0  0  0
    8.0547   19.3121   29.6368 H    0  0  0  0  0  0  0  0  0  0  0  0
    7.7042   20.1503   28.1019 H    0  0  0  0  0  0  0  0  0  0  0  0
    6.8525   14.8418   29.5635 H    0  0  0  0  0  0  0  0  0  0  0  0
    7.9746   14.3852   28.2941 H    0  0  0  0  0  0  0  0  0  0  0  0
    5.1044   13.4022   28.6143 H    0  0  0  0  0  0  0  0  0  0  0  0
    6.5800   12.4826   28.7998 H    0  0  0  0  0  0  0  0  0  0  0  0
    9.6909   12.6663   25.1213 H    0  0  0  0  0  0  0  0  0  0  0  0
    8.5630   13.6710   25.9010 H    0  0  0  0  0  0  0  0  0  0  0  0
   10.2464   15.0065   25.0827 H    0  0  0  0  0  0  0  0  0  0  0  0
    9.8159   16.4053   24.1687 H    0  0  0  0  0  0  0  0  0  0  0  0
   11.9161   14.2723   23.4786 H    0  0  0  0  0  0  0  0  0  0  0  0
   12.2229   15.9283   23.9847 H    0  0  0  0  0  0  0  0  0  0  0  0
   12.4804   15.5366   21.4845 H    0  0  0  0  0  0  0  0  0  0  0  0
   11.3780   16.8459   21.8836 H    0  0  0  0  0  0  0  0  0  0  0  0
   10.6425   13.9585   21.1339 H    0  0  0  0  0  0  0  0  0  0  0  0
   11.2207   13.7706   19.0653 H    0  0  0  0  0  0  0  0  0  0  0  0
   10.8806   14.9782   17.8269 H    0  0  0  0  0  0  0  0  0  0  0  0
    8.2781   14.6021   21.2572 H    0  0  0  0  0  0  0  0  0  0  0  0
    8.6731   16.1747   21.8940 H    0  0  0  0  0  0  0  0  0  0  0  0
 21 22  1  0  0  0  0
 20 21  1  0  0  0  0
  7 20  2  0  0  0  0
  6  7  1  0  0  0  0
  5  6  2  0  0  0  0
  4  5  1  0  0  0  0
  3  4  2  0  0  0  0
  2  3  1  0  0  0  0
  1  2  1  0  0  0  0
 33  1  1  0  0  0  0
 34  1  1  0  0  0  0
 35  1  1  0  0  0  0
 36  5  1  0  0  0  0
  8  7  1  0  0  0  0
  9  8  1  0  0  0  0
 10  9  1  0  0  0  0
 37  9  1  0  0  0  0
 38  9  1  0  0  0  0
 11 10  1  0  0  0  0
 39 10  1  0  0  0  0
 40 10  1  0  0  0  0
 12 11  1  0  0  0  0
 18 11  1  0  0  0  0
 41 11  1  0  0  0  0
 13 12  1  0  0  0  0
 14 13  1  0  0  0  0
 42 13  1  0  0  0  0
 43 13  1  0  0  0  0
 15 14  1  0  0  0  0
 44 14  1  0  0  0  0
 45 14  1  0  0  0  0
 16 15  1  0  0  0  0
 17 16  2  0  0  0  0
 19 18  1  0  0  0  0
 46 18  1  0  0  0  0
 47 18  1  0  0  0  0
 48 19  1  0  0  0  0
 49 19  1  0  0  0  0
 50 21  1  0  0  0  0
 51 21  1  0  0  0  0
 23 22  2  0  0  0  0
 24 22  1  0  0  0  0
 25 24  1  0  0  0  0
 26 25  1  0  0  0  0
 52 25  1  0  0  0  0
 53 25  1  0  0  0  0
 27 26  1  0  0  0  0
 54 26  1  0  0  0  0
 55 26  1  0  0  0  0
 28 27  1  0  0  0  0
 56 27  1  0  0  0  0
 57 27  1  0  0  0  0
 29 28  1  0  0  0  0
 32 28  1  0  0  0  0
 58 28  1  0  0  0  0
 30 29  1  0  0  0  0
 31 29  2  0  0  0  0
 59 30  1  0  0  0  0
 60 30  1  0  0  0  0
 61 32  1  0  0  0  0
 62 32  1  0  0  0  0
 16 12  1  0  0  0  0
 19  8  1  0  0  0  0
 20  3  1  0  0  0  0
 32 24  1  0  0  0  0
M  END
>  <FittedScore>
-36.72

$$$$
