A71EV2A-x7154a_best-RMSD
  FITTED

 62 65     0  0  0  0  0  0  0999 V2000
    9.6583    8.5291   23.4305 C    0  0  0  0  0  0  0  0  0  0  0  0
    9.5351   10.3028   23.8325 S    0  0  0  0  0  0  0  0  0  0  0  0
    8.1361   10.4984   24.9265 C    0  0  0  0  0  0  0  0  0  0  0  0
    7.4397    9.3749   25.2584 N    0  0  0  0  0  0  0  0  0  0  0  0
    6.3662    9.5036   26.0760 C    0  0  0  0  0  0  0  0  0  0  0  0
    5.9025   10.6841   26.5588 N    0  0  0  0  0  0  0  0  0  0  0  0
    6.5640   11.8274   26.2232 C    0  0  0  0  0  0  0  0  0  0  0  0
    5.9992   13.0125   26.6774 N    0  0  0  0  0  0  0  0  0  0  0  0
    5.7462   13.2662   28.1184 C    0  0  0  0  0  0  0  0  0  0  0  0
    4.2237   13.1537   28.4415 C    0  0  0  0  0  0  0  0  0  0  0  0
    3.3255   13.9813   27.4597 C    0  0  0  0  0  0  0  0  0  0  0  0
    1.8600   13.7848   27.6749 N    0  0  0  0  0  0  0  0  0  0  0  0
    1.0418   14.9563   27.9760 C    0  0  0  0  0  0  0  0  0  0  0  0
   -0.3743   14.3664   28.0909 C    0  0  0  0  0  0  0  0  0  0  0  0
   -0.1972   12.9659   27.7596 O    0  0  0  0  0  0  0  0  0  0  0  0
    1.1032   12.6673   27.5552 C    0  0  0  0  0  0  0  0  0  0  0  0
    1.4930   11.5555   27.2474 O    0  0  0  0  0  0  0  0  0  0  0  0
    3.7355   13.7764   25.9678 C    0  0  0  0  0  0  0  0  0  0  0  0
    5.2658   13.9071   25.7478 C    0  0  0  0  0  0  0  0  0  0  0  0
    7.7395   11.7766   25.4167 C    0  0  0  0  0  0  0  0  0  0  0  0
    8.5314   13.0522   25.0592 C    0  0  0  0  0  0  0  0  0  0  0  0
    8.1990   13.6435   23.6783 C    0  0  0  0  0  0  0  0  0  0  0  0
    7.4019   13.0679   22.9512 O    0  0  0  0  0  0  0  0  0  0  0  0
    8.8929   14.7514   23.2412 N    0  0  0  0  0  0  0  0  0  0  0  0
    9.8754   15.5674   24.0332 C    0  0  0  0  0  0  0  0  0  0  0  0
   11.3236   15.4613   23.4837 C    0  0  0  0  0  0  0  0  0  0  0  0
   11.3971   15.8271   21.9762 C    0  0  0  0  0  0  0  0  0  0  0  0
   10.3003   15.0718   21.1617 C    0  0  0  0  0  0  0  0  0  0  0  0
   10.3121   15.5293   19.7099 C    0  0  0  0  0  0  0  0  0  0  0  0
   10.8782   14.6842   18.8266 N    0  0  0  0  0  0  0  0  0  0  0  0
    9.8437   16.5865   19.3428 O    0  0  0  0  0  0  0  0  0  0  0  0
    8.8863   15.2155   21.8168 C    0  0  0  0  0  0  0  0  0  0  0  0
    8.7564    8.2019   22.9087 H    0  0  0  0  0  0  0  0  0  0  0  0
    9.7847    7.9476   24.3458 H    0  0  0  0  0  0  0  0  0  0  0  0
   10.5208    8.3584   22.7840 H    0  0  0  0  0  0  0  0  0  0  0  0
    5.8324    8.5967   26.3539 H    0  0  0  0  0  0  0  0  0  0  0  0
    6.1025   14.2633   28.3930 H    0  0  0  0  0  0  0  0  0  0  0  0
    6.3008   12.5712   28.7554 H    0  0  0  0  0  0  0  0  0  0  0  0
    4.0546   13.5030   29.4637 H    0  0  0  0  0  0  0  0  0  0  0  0
    3.9362   12.0992   28.4280 H    0  0  0  0  0  0  0  0  0  0  0  0
    3.5608   15.0296   27.6774 H    0  0  0  0  0  0  0  0  0  0  0  0
    1.0964   15.6909   27.1672 H    0  0  0  0  0  0  0  0  0  0  0  0
    1.3550   15.4206   28.9150 H    0  0  0  0  0  0  0  0  0  0  0  0
   -1.0729   14.8277   27.3882 H    0  0  0  0  0  0  0  0  0  0  0  0
   -0.7658   14.4517   29.1080 H    0  0  0  0  0  0  0  0  0  0  0  0
    3.2219   14.5130   25.3430 H    0  0  0  0  0  0  0  0  0  0  0  0
    3.4173   12.7918   25.6120 H    0  0  0  0  0  0  0  0  0  0  0  0
    5.5767   14.9479   25.8729 H    0  0  0  0  0  0  0  0  0  0  0  0
    5.4592   13.6601   24.7032 H    0  0  0  0  0  0  0  0  0  0  0  0
    9.6031   12.8473   25.1199 H    0  0  0  0  0  0  0  0  0  0  0  0
    8.3650   13.8104   25.8267 H    0  0  0  0  0  0  0  0  0  0  0  0
    9.9017   15.3171   25.0914 H    0  0  0  0  0  0  0  0  0  0  0  0
    9.5595   16.6146   24.0170 H    0  0  0  0  0  0  0  0  0  0  0  0
   11.6994   14.4433   23.6317 H    0  0  0  0  0  0  0  0  0  0  0  0
   11.9801   16.1287   24.0488 H    0  0  0  0  0  0  0  0  0  0  0  0
   12.3855   15.5651   21.5909 H    0  0  0  0  0  0  0  0  0  0  0  0
   11.2875   16.9108   21.8602 H    0  0  0  0  0  0  0  0  0  0  0  0
   10.5482   14.0023   21.2006 H    0  0  0  0  0  0  0  0  0  0  0  0
   10.8910   14.9215   17.8410 H    0  0  0  0  0  0  0  0  0  0  0  0
   11.1681   13.7558   19.1318 H    0  0  0  0  0  0  0  0  0  0  0  0
    8.1663   14.6749   21.1943 H    0  0  0  0  0  0  0  0  0  0  0  0
    8.5485   16.2584   21.7846 H    0  0  0  0  0  0  0  0  0  0  0  0
 21 22  1  0  0  0  0
 20 21  1  0  0  0  0
  7 20  2  0  0  0  0
  6  7  1  0  0  0  0
  5  6  2  0  0  0  0
  4  5  1  0  0  0  0
  3  4  2  0  0  0  0
  2  3  1  0  0  0  0
  1  2  1  0  0  0  0
 33  1  1  0  0  0  0
 34  1  1  0  0  0  0
 35  1  1  0  0  0  0
 36  5  1  0  0  0  0
  8  7  1  0  0  0  0
  9  8  1  0  0  0  0
 10  9  1  0  0  0  0
 37  9  1  0  0  0  0
 38  9  1  0  0  0  0
 11 10  1  0  0  0  0
 39 10  1  0  0  0  0
 40 10  1  0  0  0  0
 12 11  1  0  0  0  0
 18 11  1  0  0  0  0
 41 11  1  0  0  0  0
 13 12  1  0  0  0  0
 14 13  1  0  0  0  0
 42 13  1  0  0  0  0
 43 13  1  0  0  0  0
 15 14  1  0  0  0  0
 44 14  1  0  0  0  0
 45 14  1  0  0  0  0
 16 15  1  0  0  0  0
 17 16  2  0  0  0  0
 19 18  1  0  0  0  0
 46 18  1  0  0  0  0
 47 18  1  0  0  0  0
 48 19  1  0  0  0  0
 49 19  1  0  0  0  0
 50 21  1  0  0  0  0
 51 21  1  0  0  0  0
 23 22  2  0  0  0  0
 24 22  1  0  0  0  0
 25 24  1  0  0  0  0
 26 25  1  0  0  0  0
 52 25  1  0  0  0  0
 53 25  1  0  0  0  0
 27 26  1  0  0  0  0
 54 26  1  0  0  0  0
 55 26  1  0  0  0  0
 28 27  1  0  0  0  0
 56 27  1  0  0  0  0
 57 27  1  0  0  0  0
 29 28  1  0  0  0  0
 32 28  1  0  0  0  0
 58 28  1  0  0  0  0
 30 29  1  0  0  0  0
 31 29  2  0  0  0  0
 59 30  1  0  0  0  0
 60 30  1  0  0  0  0
 61 32  1  0  0  0  0
 62 32  1  0  0  0  0
 16 12  1  0  0  0  0
 19  8  1  0  0  0  0
 20  3  1  0  0  0  0
 32 24  1  0  0  0  0
M  END
>  <FittedScore>
-36.53

$$$$
