A71EV2A-x3191a_best-RMSD
  FITTED

 39 41     0  0  0  0  0  0  0999 V2000
    7.3723   13.3831   22.9266 O    0  0  0  0  0  0  0  0  0  0  0  0
    8.2163   13.8962   23.6476 C    0  0  0  0  0  0  0  0  0  0  0  0
    9.0496   14.8874   23.1578 N    0  0  0  0  0  0  0  0  0  0  0  0
   10.0928   15.6571   23.9271 C    0  0  0  0  0  0  0  0  0  0  0  0
   11.4921   15.6679   23.2514 C    0  0  0  0  0  0  0  0  0  0  0  0
   11.4160   16.1461   21.7742 C    0  0  0  0  0  0  0  0  0  0  0  0
    8.9603   15.4186   21.7516 C    0  0  0  0  0  0  0  0  0  0  0  0
   10.3323   15.3392   21.0002 C    0  0  0  0  0  0  0  0  0  0  0  0
   10.2680   15.7718   19.5357 C    0  0  0  0  0  0  0  0  0  0  0  0
    9.5073   16.6232   19.1121 O    0  0  0  0  0  0  0  0  0  0  0  0
   11.0778   15.1159   18.6789 N    0  0  0  0  0  0  0  0  0  0  0  0
    8.3405   13.4338   25.1153 C    0  0  0  0  0  0  0  0  0  0  0  0
    7.7221   12.0649   25.3935 C    0  0  0  0  0  0  0  0  0  0  0  0
    8.2249   10.9170   24.7572 C    0  0  0  0  0  0  0  0  0  0  0  0
    9.3120   10.7269   23.7951 C    0  0  0  0  0  0  0  0  0  0  0  0
    9.2975    9.4262   23.5479 C    0  0  0  0  0  0  0  0  0  0  0  0
    8.3415    8.7153   24.2323 O    0  0  0  0  0  0  0  0  0  0  0  0
    7.6747    9.6692   24.9655 C    0  0  0  0  0  0  0  0  0  0  0  0
    6.5938    9.4913   25.8355 C    0  0  0  0  0  0  0  0  0  0  0  0
    6.0852   10.6154   26.5090 C    0  0  0  0  0  0  0  0  0  0  0  0
    6.6403   11.8943   26.2876 C    0  0  0  0  0  0  0  0  0  0  0  0
    9.7500   16.6892   24.0501 H    0  0  0  0  0  0  0  0  0  0  0  0
   10.2386   15.3078   24.9456 H    0  0  0  0  0  0  0  0  0  0  0  0
   12.1691   16.3214   23.8080 H    0  0  0  0  0  0  0  0  0  0  0  0
   11.9218   14.6613   23.2915 H    0  0  0  0  0  0  0  0  0  0  0  0
   11.1986   17.2202   21.7349 H    0  0  0  0  0  0  0  0  0  0  0  0
   12.3881   16.0024   21.2972 H    0  0  0  0  0  0  0  0  0  0  0  0
    8.6160   16.4600   21.7911 H    0  0  0  0  0  0  0  0  0  0  0  0
    8.2136   14.8995   21.1432 H    0  0  0  0  0  0  0  0  0  0  0  0
   10.6196   14.2794   21.0133 H    0  0  0  0  0  0  0  0  0  0  0  0
   10.9639   15.2881   17.6874 H    0  0  0  0  0  0  0  0  0  0  0  0
   11.7048   14.3832   18.9971 H    0  0  0  0  0  0  0  0  0  0  0  0
    7.8910   14.1916   25.7631 H    0  0  0  0  0  0  0  0  0  0  0  0
    9.3858   13.3419   25.4193 H    0  0  0  0  0  0  0  0  0  0  0  0
    9.9985   11.4488   23.3579 H    0  0  0  0  0  0  0  0  0  0  0  0
    9.9779    8.9243   22.8667 H    0  0  0  0  0  0  0  0  0  0  0  0
    6.1811    8.4975   26.0109 H    0  0  0  0  0  0  0  0  0  0  0  0
    5.2682   10.4877   27.2190 H    0  0  0  0  0  0  0  0  0  0  0  0
    6.2308   12.7439   26.8315 H    0  0  0  0  0  0  0  0  0  0  0  0
  2  1  2  0  0  0  0
  3  2  1  0  0  0  0
  4  3  1  0  0  0  0
 22  4  1  0  0  0  0
 23  4  1  0  0  0  0
  5  4  1  0  0  0  0
 24  5  1  0  0  0  0
 25  5  1  0  0  0  0
  6  5  1  0  0  0  0
 26  6  1  0  0  0  0
 27  6  1  0  0  0  0
  7  3  1  0  0  0  0
 28  7  1  0  0  0  0
 29  7  1  0  0  0  0
  8  6  1  0  0  0  0
  9  8  1  0  0  0  0
 30  8  1  0  0  0  0
 10  9  2  0  0  0  0
 11  9  1  0  0  0  0
 31 11  1  0  0  0  0
 32 11  1  0  0  0  0
 12  2  1  0  0  0  0
 33 12  1  0  0  0  0
 34 12  1  0  0  0  0
 13 12  1  0  0  0  0
 21 13  1  0  0  0  0
 14 13  2  0  0  0  0
 15 14  1  0  0  0  0
 35 15  1  0  0  0  0
 16 15  2  0  0  0  0
 36 16  1  0  0  0  0
 17 16  1  0  0  0  0
 18 17  1  0  0  0  0
 19 18  2  0  0  0  0
 37 19  1  0  0  0  0
 20 19  1  0  0  0  0
 38 20  1  0  0  0  0
 39 21  1  0  0  0  0
  8  7  1  0  0  0  0
 18 14  1  0  0  0  0
 21 20  2  0  0  0  0
M  END
>  <FittedScore>
-33.42

$$$$
