A71EV2A-x3191a_lowest-energy
  FITTED

 39 41     0  0  0  0  0  0  0999 V2000
    7.5881   13.3108   22.7504 O    0  0  0  0  0  0  0  0  0  0  0  0
    8.4192   13.8389   23.4748 C    0  0  0  0  0  0  0  0  0  0  0  0
    9.2079   14.8766   23.0144 N    0  0  0  0  0  0  0  0  0  0  0  0
   10.0789   15.7751   23.8551 C    0  0  0  0  0  0  0  0  0  0  0  0
   11.4978   16.0547   23.2789 C    0  0  0  0  0  0  0  0  0  0  0  0
   11.4499   16.5222   21.8053 C    0  0  0  0  0  0  0  0  0  0  0  0
    9.1851   15.3497   21.5892 C    0  0  0  0  0  0  0  0  0  0  0  0
   10.6083   15.5119   20.9785 C    0  0  0  0  0  0  0  0  0  0  0  0
   10.5545   15.8865   19.5041 C    0  0  0  0  0  0  0  0  0  0  0  0
    9.9877   16.8748   19.0795 O    0  0  0  0  0  0  0  0  0  0  0  0
   10.9818   14.9475   18.6489 N    0  0  0  0  0  0  0  0  0  0  0  0
    8.5842   13.3456   24.9271 C    0  0  0  0  0  0  0  0  0  0  0  0
    7.8840   12.0254   25.2534 C    0  0  0  0  0  0  0  0  0  0  0  0
    8.3194   10.8135   24.6929 C    0  0  0  0  0  0  0  0  0  0  0  0
    9.4084   10.4950   23.7709 C    0  0  0  0  0  0  0  0  0  0  0  0
    9.2973    9.1874   23.5786 C    0  0  0  0  0  0  0  0  0  0  0  0
    8.2721    8.5899   24.2592 O    0  0  0  0  0  0  0  0  0  0  0  0
    7.6701    9.6242   24.9365 C    0  0  0  0  0  0  0  0  0  0  0  0
    6.5594    9.5613   25.7765 C    0  0  0  0  0  0  0  0  0  0  0  0
    6.1087   10.7472   26.3817 C    0  0  0  0  0  0  0  0  0  0  0  0
    6.7564   11.9727   26.1091 C    0  0  0  0  0  0  0  0  0  0  0  0
    9.5568   16.7270   23.9791 H    0  0  0  0  0  0  0  0  0  0  0  0
   10.2325   15.4044   24.8660 H    0  0  0  0  0  0  0  0  0  0  0  0
   11.9865   16.8231   23.8842 H    0  0  0  0  0  0  0  0  0  0  0  0
   12.1109   15.1490   23.3549 H    0  0  0  0  0  0  0  0  0  0  0  0
   11.0204   17.5283   21.7404 H    0  0  0  0  0  0  0  0  0  0  0  0
   12.4659   16.5788   21.4020 H    0  0  0  0  0  0  0  0  0  0  0  0
    8.6475   16.2989   21.5338 H    0  0  0  0  0  0  0  0  0  0  0  0
    8.6274   14.6783   20.9327 H    0  0  0  0  0  0  0  0  0  0  0  0
   11.1027   14.5365   21.0832 H    0  0  0  0  0  0  0  0  0  0  0  0
   10.9014   15.1169   17.6543 H    0  0  0  0  0  0  0  0  0  0  0  0
   11.2590   14.0294   18.9937 H    0  0  0  0  0  0  0  0  0  0  0  0
    8.2384   14.1273   25.6084 H    0  0  0  0  0  0  0  0  0  0  0  0
    9.6461   13.2008   25.1571 H    0  0  0  0  0  0  0  0  0  0  0  0
   10.1566   11.1401   23.3212 H    0  0  0  0  0  0  0  0  0  0  0  0
    9.9516    8.5969   22.9370 H    0  0  0  0  0  0  0  0  0  0  0  0
    6.0533    8.6115   25.9516 H    0  0  0  0  0  0  0  0  0  0  0  0
    5.2454   10.7185   27.0419 H    0  0  0  0  0  0  0  0  0  0  0  0
    6.3763   12.8815   26.5632 H    0  0  0  0  0  0  0  0  0  0  0  0
  2  1  2  0  0  0  0
  3  2  1  0  0  0  0
  4  3  1  0  0  0  0
 22  4  1  0  0  0  0
 23  4  1  0  0  0  0
  5  4  1  0  0  0  0
 24  5  1  0  0  0  0
 25  5  1  0  0  0  0
  6  5  1  0  0  0  0
 26  6  1  0  0  0  0
 27  6  1  0  0  0  0
  7  3  1  0  0  0  0
 28  7  1  0  0  0  0
 29  7  1  0  0  0  0
  8  6  1  0  0  0  0
  9  8  1  0  0  0  0
 30  8  1  0  0  0  0
 10  9  2  0  0  0  0
 11  9  1  0  0  0  0
 31 11  1  0  0  0  0
 32 11  1  0  0  0  0
 12  2  1  0  0  0  0
 33 12  1  0  0  0  0
 34 12  1  0  0  0  0
 13 12  1  0  0  0  0
 21 13  1  0  0  0  0
 14 13  2  0  0  0  0
 15 14  1  0  0  0  0
 35 15  1  0  0  0  0
 16 15  2  0  0  0  0
 36 16  1  0  0  0  0
 17 16  1  0  0  0  0
 18 17  1  0  0  0  0
 19 18  2  0  0  0  0
 37 19  1  0  0  0  0
 20 19  1  0  0  0  0
 38 20  1  0  0  0  0
 39 21  1  0  0  0  0
  8  7  1  0  0  0  0
 18 14  1  0  0  0  0
 21 20  2  0  0  0  0
M  END
>  <FittedScore>
-33.68

$$$$
