A71EV2A-x3229a_lowest-energy
  FITTED

 39 40     0  0  0  0  0  0  0999 V2000
    9.7246   16.7244   19.2993 O    0  0  0  0  0  0  0  0  0  0  0  0
   10.3050   15.7340   19.6976 C    0  0  0  0  0  0  0  0  0  0  0  0
   10.8617   14.8810   18.8169 N    0  0  0  0  0  0  0  0  0  0  0  0
   10.2887   15.2767   21.1583 C    0  0  0  0  0  0  0  0  0  0  0  0
   11.1473   16.2251   22.0468 C    0  0  0  0  0  0  0  0  0  0  0  0
   11.0687   15.8021   23.5376 C    0  0  0  0  0  0  0  0  0  0  0  0
    9.6021   15.6040   24.0090 C    0  0  0  0  0  0  0  0  0  0  0  0
    8.8334   15.1280   21.7144 C    0  0  0  0  0  0  0  0  0  0  0  0
    8.8007   14.6655   23.1429 N    0  0  0  0  0  0  0  0  0  0  0  0
    8.0544   13.5840   23.5787 C    0  0  0  0  0  0  0  0  0  0  0  0
    7.2986   12.9862   22.8254 O    0  0  0  0  0  0  0  0  0  0  0  0
    8.1836   13.1411   25.0479 C    0  0  0  0  0  0  0  0  0  0  0  0
    7.4539   11.8504   25.4275 C    0  0  0  0  0  0  0  0  0  0  0  0
    7.8702   10.5948   24.9247 C    0  0  0  0  0  0  0  0  0  0  0  0
    8.9742   10.5312   24.0748 O    0  0  0  0  0  0  0  0  0  0  0  0
    9.4280    9.3215   23.4272 C    0  0  0  0  0  0  0  0  0  0  0  0
    6.3577   11.8996   26.3163 C    0  0  0  0  0  0  0  0  0  0  0  0
    5.6752   10.7903   26.7084 N    0  0  0  0  0  0  0  0  0  0  0  0
    6.0594    9.5919   26.1998 C    0  0  0  0  0  0  0  0  0  0  0  0
    7.1342    9.4557   25.3140 C    0  0  0  0  0  0  0  0  0  0  0  0
   11.1808   13.9672   19.1258 H    0  0  0  0  0  0  0  0  0  0  0  0
   10.7899   15.0688   17.8213 H    0  0  0  0  0  0  0  0  0  0  0  0
   10.7415   14.2787   21.2331 H    0  0  0  0  0  0  0  0  0  0  0  0
   12.1900   16.1940   21.7192 H    0  0  0  0  0  0  0  0  0  0  0  0
   10.8082   17.2620   21.9422 H    0  0  0  0  0  0  0  0  0  0  0  0
   11.6289   14.8743   23.6894 H    0  0  0  0  0  0  0  0  0  0  0  0
   11.5472   16.5624   24.1598 H    0  0  0  0  0  0  0  0  0  0  0  0
    9.6562   15.3034   25.0527 H    0  0  0  0  0  0  0  0  0  0  0  0
    9.0955   16.5739   24.0311 H    0  0  0  0  0  0  0  0  0  0  0  0
    8.2949   14.4516   21.0435 H    0  0  0  0  0  0  0  0  0  0  0  0
    8.3019   16.0830   21.6458 H    0  0  0  0  0  0  0  0  0  0  0  0
    9.2384   12.9898   25.2951 H    0  0  0  0  0  0  0  0  0  0  0  0
    7.8271   13.9565   25.6841 H    0  0  0  0  0  0  0  0  0  0  0  0
   10.3000    9.5584   22.8172 H    0  0  0  0  0  0  0  0  0  0  0  0
    8.6505    8.9065   22.7824 H    0  0  0  0  0  0  0  0  0  0  0  0
    9.7251    8.5755   24.1686 H    0  0  0  0  0  0  0  0  0  0  0  0
    6.0341   12.8587   26.7127 H    0  0  0  0  0  0  0  0  0  0  0  0
    5.5141    8.6989   26.4935 H    0  0  0  0  0  0  0  0  0  0  0  0
    7.3778    8.4612   24.9535 H    0  0  0  0  0  0  0  0  0  0  0  0
  9 10  1  0  0  0  0
  7  9  1  0  0  0  0
  6  7  1  0  0  0  0
  5  6  1  0  0  0  0
  4  5  1  0  0  0  0
  2  4  1  0  0  0  0
  1  2  2  0  0  0  0
  3  2  1  0  0  0  0
 21  3  1  0  0  0  0
 22  3  1  0  0  0  0
 23  4  1  0  0  0  0
 24  5  1  0  0  0  0
 25  5  1  0  0  0  0
 26  6  1  0  0  0  0
 27  6  1  0  0  0  0
 28  7  1  0  0  0  0
 29  7  1  0  0  0  0
  8  4  1  0  0  0  0
 30  8  1  0  0  0  0
 31  8  1  0  0  0  0
 11 10  2  0  0  0  0
 12 10  1  0  0  0  0
 32 12  1  0  0  0  0
 33 12  1  0  0  0  0
 13 12  1  0  0  0  0
 14 13  1  0  0  0  0
 20 14  2  0  0  0  0
 15 14  1  0  0  0  0
 16 15  1  0  0  0  0
 34 16  1  0  0  0  0
 35 16  1  0  0  0  0
 36 16  1  0  0  0  0
 17 13  2  0  0  0  0
 37 17  1  0  0  0  0
 18 17  1  0  0  0  0
 19 18  2  0  0  0  0
 38 19  1  0  0  0  0
 39 20  1  0  0  0  0
  9  8  1  0  0  0  0
 20 19  1  0  0  0  0
M  END
>  <FittedScore>
-32.41

$$$$
