A71EV2A-x7130a_best-RMSD
  FITTED

 55 58     0  0  0  0  0  0  0999 V2000
    9.2987    8.5985   23.4339 C    0  0  0  0  0  0  0  0  0  0  0  0
    9.2921   10.3244   23.9933 S    0  0  0  0  0  0  0  0  0  0  0  0
    7.8445   10.5522   25.0293 C    0  0  0  0  0  0  0  0  0  0  0  0
    7.1186    9.4467   25.3462 N    0  0  0  0  0  0  0  0  0  0  0  0
    6.0368    9.5956   26.1497 C    0  0  0  0  0  0  0  0  0  0  0  0
    5.5919   10.7813   26.6278 N    0  0  0  0  0  0  0  0  0  0  0  0
    6.2719   11.9250   26.3059 C    0  0  0  0  0  0  0  0  0  0  0  0
    5.7257   13.1261   26.7779 N    0  0  0  0  0  0  0  0  0  0  0  0
    5.1822   14.1343   25.8110 C    0  0  0  0  0  0  0  0  0  0  0  0
    3.6753   13.8669   25.5012 C    0  0  0  0  0  0  0  0  0  0  0  0
    2.9179   13.4387   26.6976 N    0  0  0  0  0  0  0  0  0  0  0  0
    1.5810   13.1595   26.5968 N    0  0  0  0  0  0  0  0  0  0  0  0
    1.3632   12.6720   27.9814 C    0  0  0  0  0  0  0  0  0  0  0  0
    2.5360   12.6371   28.7114 C    0  0  0  0  0  0  0  0  0  0  0  0
    2.6770   12.2082   30.0771 C    0  0  0  0  0  0  0  0  0  0  0  0
    2.7939   11.8741   31.1578 N    0  0  0  0  0  0  0  0  0  0  0  0
    3.5226   13.0967   27.8759 C    0  0  0  0  0  0  0  0  0  0  0  0
    5.0401   13.2125   28.1121 C    0  0  0  0  0  0  0  0  0  0  0  0
    7.4592   11.8407   25.5022 C    0  0  0  0  0  0  0  0  0  0  0  0
    8.3025   13.0738   25.1238 C    0  0  0  0  0  0  0  0  0  0  0  0
    8.1101   13.5651   23.6759 C    0  0  0  0  0  0  0  0  0  0  0  0
    7.2925   13.0089   22.9550 O    0  0  0  0  0  0  0  0  0  0  0  0
    8.8724   14.6234   23.2221 N    0  0  0  0  0  0  0  0  0  0  0  0
    9.7765   15.5015   24.0490 C    0  0  0  0  0  0  0  0  0  0  0  0
   11.2206   15.6173   23.4914 C    0  0  0  0  0  0  0  0  0  0  0  0
   11.2296   16.0713   22.0103 C    0  0  0  0  0  0  0  0  0  0  0  0
   10.2664   15.1776   21.1700 C    0  0  0  0  0  0  0  0  0  0  0  0
   10.2231   15.6181   19.7086 C    0  0  0  0  0  0  0  0  0  0  0  0
   10.7476   14.7559   18.8198 N    0  0  0  0  0  0  0  0  0  0  0  0
    9.7055   16.6500   19.3303 O    0  0  0  0  0  0  0  0  0  0  0  0
    8.8399   15.1116   21.8056 C    0  0  0  0  0  0  0  0  0  0  0  0
    8.3889    8.3951   22.8649 H    0  0  0  0  0  0  0  0  0  0  0  0
    9.3481    7.9400   24.3016 H    0  0  0  0  0  0  0  0  0  0  0  0
   10.1679    8.4188   22.7988 H    0  0  0  0  0  0  0  0  0  0  0  0
    5.4835    8.7014   26.4211 H    0  0  0  0  0  0  0  0  0  0  0  0
    5.6990   14.1466   24.8564 H    0  0  0  0  0  0  0  0  0  0  0  0
    5.3001   15.1494   26.2040 H    0  0  0  0  0  0  0  0  0  0  0  0
    3.6203   13.0914   24.7291 H    0  0  0  0  0  0  0  0  0  0  0  0
    3.2373   14.7695   25.0650 H    0  0  0  0  0  0  0  0  0  0  0  0
    0.3768   12.3854   28.3370 H    0  0  0  0  0  0  0  0  0  0  0  0
    5.3814   12.4421   28.8107 H    0  0  0  0  0  0  0  0  0  0  0  0
    5.2485   14.1691   28.6010 H    0  0  0  0  0  0  0  0  0  0  0  0
    9.3593   12.8513   25.3028 H    0  0  0  0  0  0  0  0  0  0  0  0
    8.0819   13.8935   25.8121 H    0  0  0  0  0  0  0  0  0  0  0  0
    9.8681   15.1808   25.0851 H    0  0  0  0  0  0  0  0  0  0  0  0
    9.3315   16.5000   24.1017 H    0  0  0  0  0  0  0  0  0  0  0  0
   11.7318   14.6541   23.5819 H    0  0  0  0  0  0  0  0  0  0  0  0
   11.7872   16.3293   24.0916 H    0  0  0  0  0  0  0  0  0  0  0  0
   12.2452   15.9992   21.6140 H    0  0  0  0  0  0  0  0  0  0  0  0
   10.9385   17.1243   21.9414 H    0  0  0  0  0  0  0  0  0  0  0  0
   10.6686   14.1582   21.2242 H    0  0  0  0  0  0  0  0  0  0  0  0
   11.0028   13.8228   19.1357 H    0  0  0  0  0  0  0  0  0  0  0  0
   10.6996   14.9681   17.8258 H    0  0  0  0  0  0  0  0  0  0  0  0
    8.2189   14.4815   21.1611 H    0  0  0  0  0  0  0  0  0  0  0  0
    8.3745   16.1026   21.7841 H    0  0  0  0  0  0  0  0  0  0  0  0
 19 20  1  0  0  0  0
  7 19  2  0  0  0  0
  6  7  1  0  0  0  0
  5  6  2  0  0  0  0
  4  5  1  0  0  0  0
  3  4  2  0  0  0  0
  2  3  1  0  0  0  0
  1  2  1  0  0  0  0
 32  1  1  0  0  0  0
 33  1  1  0  0  0  0
 34  1  1  0  0  0  0
 35  5  1  0  0  0  0
  8  7  1  0  0  0  0
  9  8  1  0  0  0  0
 10  9  1  0  0  0  0
 36  9  1  0  0  0  0
 37  9  1  0  0  0  0
 11 10  1  0  0  0  0
 38 10  1  0  0  0  0
 39 10  1  0  0  0  0
 12 11  1  0  0  0  0
 13 12  2  0  0  0  0
 14 13  1  0  0  0  0
 40 13  1  0  0  0  0
 15 14  1  0  0  0  0
 17 14  2  0  0  0  0
 16 15  3  0  0  0  0
 18 17  1  0  0  0  0
 41 18  1  0  0  0  0
 42 18  1  0  0  0  0
 21 20  1  0  0  0  0
 43 20  1  0  0  0  0
 44 20  1  0  0  0  0
 22 21  2  0  0  0  0
 23 21  1  0  0  0  0
 24 23  1  0  0  0  0
 25 24  1  0  0  0  0
 45 24  1  0  0  0  0
 46 24  1  0  0  0  0
 26 25  1  0  0  0  0
 47 25  1  0  0  0  0
 48 25  1  0  0  0  0
 27 26  1  0  0  0  0
 49 26  1  0  0  0  0
 50 26  1  0  0  0  0
 28 27  1  0  0  0  0
 31 27  1  0  0  0  0
 51 27  1  0  0  0  0
 29 28  1  0  0  0  0
 30 28  2  0  0  0  0
 52 29  1  0  0  0  0
 53 29  1  0  0  0  0
 54 31  1  0  0  0  0
 55 31  1  0  0  0  0
 17 11  1  0  0  0  0
 18  8  1  0  0  0  0
 19  3  1  0  0  0  0
 31 23  1  0  0  0  0
M  END
>  <FittedScore>
-32.62

$$$$
