A71EV2A-x5394b_best-RMSD
  FITTED

 36 37     0  0  0  0  0  0  0999 V2000
    9.4927   10.2915   23.8595 CL   0  0  0  0  0  0  0  0  0  0  0  0
    8.1367   10.5942   24.9035 C    0  0  0  0  0  0  0  0  0  0  0  0
    7.3545    9.4919   25.2755 C    0  0  0  0  0  0  0  0  0  0  0  0
    6.2566    9.6492   26.1321 C    0  0  0  0  0  0  0  0  0  0  0  0
    5.9211   10.9172   26.6166 C    0  0  0  0  0  0  0  0  0  0  0  0
    6.6796   12.0311   26.2321 C    0  0  0  0  0  0  0  0  0  0  0  0
    7.7934   11.8870   25.3753 C    0  0  0  0  0  0  0  0  0  0  0  0
    8.5816   13.1416   24.9764 C    0  0  0  0  0  0  0  0  0  0  0  0
    8.3122   13.6522   23.5494 C    0  0  0  0  0  0  0  0  0  0  0  0
    7.4796   13.0912   22.8565 O    0  0  0  0  0  0  0  0  0  0  0  0
    9.0241   14.7368   23.0701 N    0  0  0  0  0  0  0  0  0  0  0  0
    9.9403   15.6312   23.8659 C    0  0  0  0  0  0  0  0  0  0  0  0
   11.3847   15.7068   23.2958 C    0  0  0  0  0  0  0  0  0  0  0  0
   11.3883   16.1317   21.8057 C    0  0  0  0  0  0  0  0  0  0  0  0
    8.9727   15.2006   21.6439 C    0  0  0  0  0  0  0  0  0  0  0  0
   10.3944   15.2489   20.9926 C    0  0  0  0  0  0  0  0  0  0  0  0
   10.3650   15.6723   19.5270 C    0  0  0  0  0  0  0  0  0  0  0  0
    9.8778   16.7074   19.1126 O    0  0  0  0  0  0  0  0  0  0  0  0
   10.9172   14.8038   18.6689 N    0  0  0  0  0  0  0  0  0  0  0  0
    7.5945    8.5047   24.8895 H    0  0  0  0  0  0  0  0  0  0  0  0
    5.6594    8.7844   26.4151 H    0  0  0  0  0  0  0  0  0  0  0  0
    5.0692   11.0420   27.2797 H    0  0  0  0  0  0  0  0  0  0  0  0
    6.3942   13.0121   26.6061 H    0  0  0  0  0  0  0  0  0  0  0  0
    8.3505   13.9399   25.6875 H    0  0  0  0  0  0  0  0  0  0  0  0
    9.6485   12.9320   25.1062 H    0  0  0  0  0  0  0  0  0  0  0  0
    9.5116   16.6378   23.8842 H    0  0  0  0  0  0  0  0  0  0  0  0
   10.0239   15.3511   24.9148 H    0  0  0  0  0  0  0  0  0  0  0  0
   11.9725   16.4171   23.8789 H    0  0  0  0  0  0  0  0  0  0  0  0
   11.8700   14.7315   23.3979 H    0  0  0  0  0  0  0  0  0  0  0  0
   11.1311   17.1931   21.7151 H    0  0  0  0  0  0  0  0  0  0  0  0
   12.3956   16.0142   21.3962 H    0  0  0  0  0  0  0  0  0  0  0  0
    8.4998   16.1864   21.6011 H    0  0  0  0  0  0  0  0  0  0  0  0
    8.3498   14.5561   21.0180 H    0  0  0  0  0  0  0  0  0  0  0  0
   10.7784   14.2197   21.0535 H    0  0  0  0  0  0  0  0  0  0  0  0
   11.2013   13.8796   18.9896 H    0  0  0  0  0  0  0  0  0  0  0  0
   10.8904   15.0047   17.6783 H    0  0  0  0  0  0  0  0  0  0  0  0
  8  9  1  0  0  0  0
  7  8  1  0  0  0  0
  6  7  2  0  0  0  0
  5  6  1  0  0  0  0
  4  5  2  0  0  0  0
  3  4  1  0  0  0  0
  2  3  2  0  0  0  0
  1  2  1  0  0  0  0
 20  3  1  0  0  0  0
 21  4  1  0  0  0  0
 22  5  1  0  0  0  0
 23  6  1  0  0  0  0
 24  8  1  0  0  0  0
 25  8  1  0  0  0  0
 10  9  2  0  0  0  0
 11  9  1  0  0  0  0
 12 11  1  0  0  0  0
 26 12  1  0  0  0  0
 27 12  1  0  0  0  0
 13 12  1  0  0  0  0
 28 13  1  0  0  0  0
 29 13  1  0  0  0  0
 14 13  1  0  0  0  0
 30 14  1  0  0  0  0
 31 14  1  0  0  0  0
 15 11  1  0  0  0  0
 32 15  1  0  0  0  0
 33 15  1  0  0  0  0
 16 14  1  0  0  0  0
 17 16  1  0  0  0  0
 34 16  1  0  0  0  0
 18 17  2  0  0  0  0
 19 17  1  0  0  0  0
 35 19  1  0  0  0  0
 36 19  1  0  0  0  0
  7  2  1  0  0  0  0
 16 15  1  0  0  0  0
M  END
>  <FittedScore>
-35.12

$$$$
