A71EV2A-x4674c_lowest-energy
  FITTED

 43 45     0  0  0  0  0  0  0999 V2000
    7.5611   13.0692   22.8277 O    0  0  0  0  0  0  0  0  0  0  0  0
    8.5876   13.4777   23.3531 C    0  0  0  0  0  0  0  0  0  0  0  0
    9.1649   14.6801   23.0352 N    0  0  0  0  0  0  0  0  0  0  0  0
   10.1025   15.4751   23.9108 C    0  0  0  0  0  0  0  0  0  0  0  0
   11.4960   15.7352   23.2624 C    0  0  0  0  0  0  0  0  0  0  0  0
   11.3719   16.2716   21.8088 C    0  0  0  0  0  0  0  0  0  0  0  0
    9.0052   15.2978   21.6873 C    0  0  0  0  0  0  0  0  0  0  0  0
   10.4011   15.3684   20.9946 C    0  0  0  0  0  0  0  0  0  0  0  0
   10.3087   15.7934   19.5397 C    0  0  0  0  0  0  0  0  0  0  0  0
    9.7542   16.8131   19.1711 O    0  0  0  0  0  0  0  0  0  0  0  0
   10.7253   14.8558   18.6608 N    0  0  0  0  0  0  0  0  0  0  0  0
    9.3459   12.6678   24.1356 N    0  0  0  0  0  0  0  0  0  0  0  0
    8.9750   11.3491   24.5395 C    0  0  0  0  0  0  0  0  0  0  0  0
    7.9535   11.1228   25.4917 C    0  0  0  0  0  0  0  0  0  0  0  0
    7.2509   12.5264   26.3734 S    0  0  0  0  0  0  0  0  0  0  0  0
    6.2149   11.7818   27.6643 C    0  0  0  0  0  0  0  0  0  0  0  0
    5.4243   10.5751   27.1330 C    0  0  0  0  0  0  0  0  0  0  0  0
    6.3754    9.4425   26.6895 C    0  0  0  0  0  0  0  0  0  0  0  0
    7.5055    9.7953   25.7152 C    0  0  0  0  0  0  0  0  0  0  0  0
    8.1219    8.7384   25.0195 C    0  0  0  0  0  0  0  0  0  0  0  0
    9.1687    8.9736   24.1202 C    0  0  0  0  0  0  0  0  0  0  0  0
    9.5927   10.2805   23.8813 C    0  0  0  0  0  0  0  0  0  0  0  0
    9.6304   16.4361   24.1408 H    0  0  0  0  0  0  0  0  0  0  0  0
   10.2590   15.0015   24.8831 H    0  0  0  0  0  0  0  0  0  0  0  0
   12.0579   16.4479   23.8684 H    0  0  0  0  0  0  0  0  0  0  0  0
   12.0701   14.8028   23.2593 H    0  0  0  0  0  0  0  0  0  0  0  0
   11.0090   17.3055   21.8212 H    0  0  0  0  0  0  0  0  0  0  0  0
   12.3602   16.2906   21.3349 H    0  0  0  0  0  0  0  0  0  0  0  0
    8.5603   16.2950   21.7887 H    0  0  0  0  0  0  0  0  0  0  0  0
    8.3197   14.7302   21.0491 H    0  0  0  0  0  0  0  0  0  0  0  0
   10.8214   14.3540   21.0353 H    0  0  0  0  0  0  0  0  0  0  0  0
   10.7462   15.0587   17.6661 H    0  0  0  0  0  0  0  0  0  0  0  0
   10.9752   13.9177   18.9815 H    0  0  0  0  0  0  0  0  0  0  0  0
   10.3225   12.8903   24.2523 H    0  0  0  0  0  0  0  0  0  0  0  0
    5.5343   12.5496   28.0362 H    0  0  0  0  0  0  0  0  0  0  0  0
    6.8644   11.4833   28.4924 H    0  0  0  0  0  0  0  0  0  0  0  0
    4.7978   10.8829   26.2920 H    0  0  0  0  0  0  0  0  0  0  0  0
    4.7542   10.2034   27.9114 H    0  0  0  0  0  0  0  0  0  0  0  0
    5.7541    8.6550   26.2501 H    0  0  0  0  0  0  0  0  0  0  0  0
    6.8296    8.9981   27.5815 H    0  0  0  0  0  0  0  0  0  0  0  0
    7.7888    7.7120   25.1709 H    0  0  0  0  0  0  0  0  0  0  0  0
    9.6308    8.1463   23.5878 H    0  0  0  0  0  0  0  0  0  0  0  0
   10.3814   10.4586   23.1539 H    0  0  0  0  0  0  0  0  0  0  0  0
  2  1  2  0  0  0  0
  3  2  1  0  0  0  0
  4  3  1  0  0  0  0
 23  4  1  0  0  0  0
 24  4  1  0  0  0  0
  5  4  1  0  0  0  0
 25  5  1  0  0  0  0
 26  5  1  0  0  0  0
  6  5  1  0  0  0  0
 27  6  1  0  0  0  0
 28  6  1  0  0  0  0
  7  3  1  0  0  0  0
 29  7  1  0  0  0  0
 30  7  1  0  0  0  0
  8  6  1  0  0  0  0
  9  8  1  0  0  0  0
 31  8  1  0  0  0  0
 10  9  2  0  0  0  0
 11  9  1  0  0  0  0
 32 11  1  0  0  0  0
 33 11  1  0  0  0  0
 12  2  1  0  0  0  0
 34 12  1  0  0  0  0
 13 12  1  0  0  0  0
 22 13  1  0  0  0  0
 14 13  2  0  0  0  0
 15 14  1  0  0  0  0
 16 15  1  0  0  0  0
 35 16  1  0  0  0  0
 36 16  1  0  0  0  0
 17 16  1  0  0  0  0
 37 17  1  0  0  0  0
 38 17  1  0  0  0  0
 18 17  1  0  0  0  0
 39 18  1  0  0  0  0
 40 18  1  0  0  0  0
 19 14  1  0  0  0  0
 20 19  2  0  0  0  0
 41 20  1  0  0  0  0
 21 20  1  0  0  0  0
 42 21  1  0  0  0  0
 43 22  1  0  0  0  0
  8  7  1  0  0  0  0
 19 18  1  0  0  0  0
 22 21  2  0  0  0  0
M  END
>  <FittedScore>
-34.68

$$$$
