A71EV2A-x5525a_best-RMSD
  FITTED

 47 49     0  0  0  0  0  0  0999 V2000
    9.8113   16.8157   19.2386 O    0  0  0  0  0  0  0  0  0  0  0  0
   10.2880   15.7536   19.6033 C    0  0  0  0  0  0  0  0  0  0  0  0
   10.7235   14.8483   18.7035 N    0  0  0  0  0  0  0  0  0  0  0  0
   10.2772   15.2605   21.0519 C    0  0  0  0  0  0  0  0  0  0  0  0
   11.1623   16.1525   21.9661 C    0  0  0  0  0  0  0  0  0  0  0  0
   11.1070   15.6470   23.4316 C    0  0  0  0  0  0  0  0  0  0  0  0
    9.6462   15.4550   23.9311 C    0  0  0  0  0  0  0  0  0  0  0  0
    8.8291   15.1235   21.6214 C    0  0  0  0  0  0  0  0  0  0  0  0
    8.7796   14.6058   23.0310 N    0  0  0  0  0  0  0  0  0  0  0  0
    7.9095   13.6040   23.4298 C    0  0  0  0  0  0  0  0  0  0  0  0
    7.0920   13.1208   22.6597 O    0  0  0  0  0  0  0  0  0  0  0  0
    7.8939   13.1696   24.9042 C    0  0  0  0  0  0  0  0  0  0  0  0
    7.0072   11.9542   25.2235 C    0  0  0  0  0  0  0  0  0  0  0  0
    7.4607   10.6174   25.0983 C    0  0  0  0  0  0  0  0  0  0  0  0
    9.1173   10.2548   24.4914 S    0  0  0  0  0  0  0  0  0  0  0  0
    9.1146    8.6056   23.7250 C    0  0  0  0  0  0  0  0  0  0  0  0
    5.7065   12.2094   25.7053 C    0  0  0  0  0  0  0  0  0  0  0  0
    4.8515   11.1712   26.1309 C    0  0  0  0  0  0  0  0  0  0  0  0
    5.3320    9.8480   26.0237 C    0  0  0  0  0  0  0  0  0  0  0  0
    6.6024    9.5798   25.4999 C    0  0  0  0  0  0  0  0  0  0  0  0
    3.5696   11.4394   26.6670 C    0  0  0  0  0  0  0  0  0  0  0  0
    2.7353   10.4196   27.3631 N    0  0  0  0  0  0  0  0  0  0  0  0
    1.6293   11.1469   27.6702 N    0  0  0  0  0  0  0  0  0  0  0  0
    1.6885   12.4530   27.3082 C    0  0  0  0  0  0  0  0  0  0  0  0
    2.8870   12.6545   26.6658 C    0  0  0  0  0  0  0  0  0  0  0  0
   10.7282   15.0744   17.7184 H    0  0  0  0  0  0  0  0  0  0  0  0
   10.9356   13.8954   18.9948 H    0  0  0  0  0  0  0  0  0  0  0  0
   10.7129   14.2535   21.0872 H    0  0  0  0  0  0  0  0  0  0  0  0
   12.1966   16.1379   21.6106 H    0  0  0  0  0  0  0  0  0  0  0  0
   10.8256   17.1927   21.9201 H    0  0  0  0  0  0  0  0  0  0  0  0
   11.6472   14.6981   23.5131 H    0  0  0  0  0  0  0  0  0  0  0  0
   11.6224   16.3599   24.0792 H    0  0  0  0  0  0  0  0  0  0  0  0
    9.7277   15.0646   24.9443 H    0  0  0  0  0  0  0  0  0  0  0  0
    9.1722   16.4354   24.0418 H    0  0  0  0  0  0  0  0  0  0  0  0
    8.2797   14.4766   20.9324 H    0  0  0  0  0  0  0  0  0  0  0  0
    8.3142   16.0887   21.5834 H    0  0  0  0  0  0  0  0  0  0  0  0
    8.9063   12.9631   25.2593 H    0  0  0  0  0  0  0  0  0  0  0  0
    7.5659   14.0216   25.5075 H    0  0  0  0  0  0  0  0  0  0  0  0
    8.9648    7.8368   24.4846 H    0  0  0  0  0  0  0  0  0  0  0  0
   10.0774    8.4262   23.2428 H    0  0  0  0  0  0  0  0  0  0  0  0
    8.3238    8.5476   22.9737 H    0  0  0  0  0  0  0  0  0  0  0  0
    5.3879   13.2446   25.7786 H    0  0  0  0  0  0  0  0  0  0  0  0
    4.7259    8.9971   26.3282 H    0  0  0  0  0  0  0  0  0  0  0  0
    6.9098    8.5428   25.4376 H    0  0  0  0  0  0  0  0  0  0  0  0
    0.9052   10.7782   28.2845 H    0  0  0  0  0  0  0  0  0  0  0  0
    0.9181   13.1954   27.5038 H    0  0  0  0  0  0  0  0  0  0  0  0
    3.2068   13.6022   26.2391 H    0  0  0  0  0  0  0  0  0  0  0  0
  9 10  1  0  0  0  0
  7  9  1  0  0  0  0
  6  7  1  0  0  0  0
  5  6  1  0  0  0  0
  4  5  1  0  0  0  0
  2  4  1  0  0  0  0
  1  2  2  0  0  0  0
  3  2  1  0  0  0  0
 26  3  1  0  0  0  0
 27  3  1  0  0  0  0
 28  4  1  0  0  0  0
 29  5  1  0  0  0  0
 30  5  1  0  0  0  0
 31  6  1  0  0  0  0
 32  6  1  0  0  0  0
 33  7  1  0  0  0  0
 34  7  1  0  0  0  0
  8  4  1  0  0  0  0
 35  8  1  0  0  0  0
 36  8  1  0  0  0  0
 11 10  2  0  0  0  0
 12 10  1  0  0  0  0
 37 12  1  0  0  0  0
 38 12  1  0  0  0  0
 13 12  1  0  0  0  0
 14 13  1  0  0  0  0
 20 14  2  0  0  0  0
 15 14  1  0  0  0  0
 16 15  1  0  0  0  0
 39 16  1  0  0  0  0
 40 16  1  0  0  0  0
 41 16  1  0  0  0  0
 17 13  2  0  0  0  0
 42 17  1  0  0  0  0
 18 17  1  0  0  0  0
 19 18  2  0  0  0  0
 43 19  1  0  0  0  0
 44 20  1  0  0  0  0
 21 18  1  0  0  0  0
 25 21  1  0  0  0  0
 22 21  2  0  0  0  0
 23 22  1  0  0  0  0
 45 23  1  0  0  0  0
 24 23  1  0  0  0  0
 46 24  1  0  0  0  0
 47 25  1  0  0  0  0
  9  8  1  0  0  0  0
 20 19  1  0  0  0  0
 25 24  2  0  0  0  0
M  END
>  <FittedScore>
-34.02

$$$$
