A71EV2A-x4017a_best-RMSD
  FITTED

 41 43     0  0  0  0  0  0  0999 V2000
    9.9754   16.7850   19.2286 O    0  0  0  0  0  0  0  0  0  0  0  0
   10.4866   15.7315   19.5777 C    0  0  0  0  0  0  0  0  0  0  0  0
   10.7058   14.7400   18.7018 N    0  0  0  0  0  0  0  0  0  0  0  0
   10.8378   15.3592   21.0115 C    0  0  0  0  0  0  0  0  0  0  0  0
   11.8561   16.3800   21.5948 C    0  0  0  0  0  0  0  0  0  0  0  0
   12.1058   16.1026   23.0890 C    0  0  0  0  0  0  0  0  0  0  0  0
   10.7847   16.0024   23.8805 C    0  0  0  0  0  0  0  0  0  0  0  0
    9.5672   15.2008   21.9060 C    0  0  0  0  0  0  0  0  0  0  0  0
    9.9448   14.8948   23.3328 N    0  0  0  0  0  0  0  0  0  0  0  0
    9.7190   13.7350   24.0354 C    0  0  0  0  0  0  0  0  0  0  0  0
   10.0296   13.6000   25.2068 O    0  0  0  0  0  0  0  0  0  0  0  0
    9.2599   12.6717   23.3310 N    0  0  0  0  0  0  0  0  0  0  0  0
    8.6856   11.4833   23.8828 C    0  0  0  0  0  0  0  0  0  0  0  0
    9.1640   10.2211   23.4861 C    0  0  0  0  0  0  0  0  0  0  0  0
    8.5550    9.0458   23.9654 C    0  0  0  0  0  0  0  0  0  0  0  0
    7.4832    9.1201   24.8737 C    0  0  0  0  0  0  0  0  0  0  0  0
    7.0511   10.3804   25.3008 C    0  0  0  0  0  0  0  0  0  0  0  0
    6.0688   10.7374   26.1780 N    0  0  0  0  0  0  0  0  0  0  0  0
    5.1275    9.8310   26.8400 C    0  0  0  0  0  0  0  0  0  0  0  0
    7.6228   11.5272   24.8092 C    0  0  0  0  0  0  0  0  0  0  0  0
    6.9340   12.5814   25.3845 C    0  0  0  0  0  0  0  0  0  0  0  0
    5.8843   12.0878   26.3058 N    0  0  0  0  0  0  0  0  0  0  0  0
   10.9594   13.8080   19.0225 H    0  0  0  0  0  0  0  0  0  0  0  0
   10.6038   14.9028   17.7155 H    0  0  0  0  0  0  0  0  0  0  0  0
   11.3464   14.3825   21.0340 H    0  0  0  0  0  0  0  0  0  0  0  0
   12.8032   16.3115   21.0505 H    0  0  0  0  0  0  0  0  0  0  0  0
   11.4969   17.4068   21.4733 H    0  0  0  0  0  0  0  0  0  0  0  0
   12.6784   15.1780   23.2022 H    0  0  0  0  0  0  0  0  0  0  0  0
   12.7206   16.9009   23.5073 H    0  0  0  0  0  0  0  0  0  0  0  0
   11.0293   15.8804   24.9351 H    0  0  0  0  0  0  0  0  0  0  0  0
   10.2393   16.9493   23.8256 H    0  0  0  0  0  0  0  0  0  0  0  0
    8.9080   14.4483   21.4634 H    0  0  0  0  0  0  0  0  0  0  0  0
    8.9839   16.1284   21.8775 H    0  0  0  0  0  0  0  0  0  0  0  0
    9.4078   12.6462   22.3287 H    0  0  0  0  0  0  0  0  0  0  0  0
    9.9962   10.1425   22.7899 H    0  0  0  0  0  0  0  0  0  0  0  0
    8.9118    8.0753   23.6300 H    0  0  0  0  0  0  0  0  0  0  0  0
    7.0120    8.2103   25.2397 H    0  0  0  0  0  0  0  0  0  0  0  0
    4.5164    9.2912   26.1099 H    0  0  0  0  0  0  0  0  0  0  0  0
    4.4441   10.3513   27.5142 H    0  0  0  0  0  0  0  0  0  0  0  0
    5.6609    9.0881   27.4339 H    0  0  0  0  0  0  0  0  0  0  0  0
    7.0892   13.6427   25.2163 H    0  0  0  0  0  0  0  0  0  0  0  0
 10 12  1  0  0  0  0
  9 10  1  0  0  0  0
  7  9  1  0  0  0  0
  6  7  1  0  0  0  0
  5  6  1  0  0  0  0
  4  5  1  0  0  0  0
  2  4  1  0  0  0  0
  1  2  2  0  0  0  0
  3  2  1  0  0  0  0
 23  3  1  0  0  0  0
 24  3  1  0  0  0  0
 25  4  1  0  0  0  0
 26  5  1  0  0  0  0
 27  5  1  0  0  0  0
 28  6  1  0  0  0  0
 29  6  1  0  0  0  0
 30  7  1  0  0  0  0
 31  7  1  0  0  0  0
  8  4  1  0  0  0  0
 32  8  1  0  0  0  0
 33  8  1  0  0  0  0
 11 10  2  0  0  0  0
 34 12  1  0  0  0  0
 13 12  1  0  0  0  0
 14 13  2  0  0  0  0
 35 14  1  0  0  0  0
 15 14  1  0  0  0  0
 36 15  1  0  0  0  0
 16 15  2  0  0  0  0
 37 16  1  0  0  0  0
 17 16  1  0  0  0  0
 18 17  1  0  0  0  0
 22 18  1  0  0  0  0
 19 18  1  0  0  0  0
 38 19  1  0  0  0  0
 39 19  1  0  0  0  0
 40 19  1  0  0  0  0
 20 13  1  0  0  0  0
 21 20  1  0  0  0  0
 41 21  1  0  0  0  0
  9  8  1  0  0  0  0
 20 17  2  0  0  0  0
 22 21  2  0  0  0  0
M  END
>  <FittedScore>
-37.49

$$$$
