A71EV2A-x4351a_best-RMSD
  FITTED

 38 40     0  0  0  0  0  0  0999 V2000
    9.1620   15.7737   19.2303 O    0  0  0  0  0  0  0  0  0  0  0  0
   10.2027   15.2651   19.6036 C    0  0  0  0  0  0  0  0  0  0  0  0
   11.0154   14.6575   18.7206 N    0  0  0  0  0  0  0  0  0  0  0  0
   10.8535   15.6217   20.9304 C    0  0  0  0  0  0  0  0  0  0  0  0
   10.7876   14.5555   22.0547 C    0  0  0  0  0  0  0  0  0  0  0  0
    9.3192   14.3002   22.5491 C    0  0  0  0  0  0  0  0  0  0  0  0
    9.2826   13.6464   23.8879 N    0  0  0  0  0  0  0  0  0  0  0  0
   10.1237   14.2240   24.9631 C    0  0  0  0  0  0  0  0  0  0  0  0
   11.5890   14.1939   24.4992 C    0  0  0  0  0  0  0  0  0  0  0  0
   11.7415   15.0171   23.2018 C    0  0  0  0  0  0  0  0  0  0  0  0
    8.7914   12.3818   24.1008 C    0  0  0  0  0  0  0  0  0  0  0  0
    7.7280   12.1529   25.0142 C    0  0  0  0  0  0  0  0  0  0  0  0
    7.4721   10.8035   25.3796 C    0  0  0  0  0  0  0  0  0  0  0  0
    8.1814    9.7825   24.8151 N    0  0  0  0  0  0  0  0  0  0  0  0
    9.1428   10.0863   23.8986 C    0  0  0  0  0  0  0  0  0  0  0  0
    9.4691   11.3492   23.5195 N    0  0  0  0  0  0  0  0  0  0  0  0
    6.9504   13.1892   25.5860 C    0  0  0  0  0  0  0  0  0  0  0  0
    5.9505   12.8934   26.5182 C    0  0  0  0  0  0  0  0  0  0  0  0
    5.7145   11.5685   26.8964 C    0  0  0  0  0  0  0  0  0  0  0  0
    6.4775   10.5378   26.3356 C    0  0  0  0  0  0  0  0  0  0  0  0
   10.7385   14.6110   17.7506 H    0  0  0  0  0  0  0  0  0  0  0  0
   11.9648   14.4229   18.9806 H    0  0  0  0  0  0  0  0  0  0  0  0
   10.3987   16.5524   21.2886 H    0  0  0  0  0  0  0  0  0  0  0  0
   11.9000   15.8915   20.7408 H    0  0  0  0  0  0  0  0  0  0  0  0
   11.1803   13.6143   21.6588 H    0  0  0  0  0  0  0  0  0  0  0  0
    8.7664   15.2427   22.5992 H    0  0  0  0  0  0  0  0  0  0  0  0
    8.7950   13.7018   21.7990 H    0  0  0  0  0  0  0  0  0  0  0  0
    9.8171   15.2501   25.1844 H    0  0  0  0  0  0  0  0  0  0  0  0
   10.0527   13.6809   25.9148 H    0  0  0  0  0  0  0  0  0  0  0  0
   12.2278   14.6185   25.2765 H    0  0  0  0  0  0  0  0  0  0  0  0
   11.9194   13.1627   24.3385 H    0  0  0  0  0  0  0  0  0  0  0  0
   11.5840   16.0751   23.4420 H    0  0  0  0  0  0  0  0  0  0  0  0
   12.7815   14.9274   22.8722 H    0  0  0  0  0  0  0  0  0  0  0  0
    9.6933    9.2656   23.4482 H    0  0  0  0  0  0  0  0  0  0  0  0
    7.1086   14.2319   25.3234 H    0  0  0  0  0  0  0  0  0  0  0  0
    5.3593   13.6959   26.9486 H    0  0  0  0  0  0  0  0  0  0  0  0
    4.9305   11.3376   27.6126 H    0  0  0  0  0  0  0  0  0  0  0  0
    6.2762    9.5125   26.6365 H    0  0  0  0  0  0  0  0  0  0  0  0
  6  7  1  0  0  0  0
  5  6  1  0  0  0  0
  4  5  1  0  0  0  0
  2  4  1  0  0  0  0
  1  2  2  0  0  0  0
  3  2  1  0  0  0  0
 21  3  1  0  0  0  0
 22  3  1  0  0  0  0
 23  4  1  0  0  0  0
 24  4  1  0  0  0  0
 10  5  1  0  0  0  0
 25  5  1  0  0  0  0
 26  6  1  0  0  0  0
 27  6  1  0  0  0  0
  8  7  1  0  0  0  0
 28  8  1  0  0  0  0
 29  8  1  0  0  0  0
  9  8  1  0  0  0  0
 30  9  1  0  0  0  0
 31  9  1  0  0  0  0
 32 10  1  0  0  0  0
 33 10  1  0  0  0  0
 11  7  1  0  0  0  0
 16 11  2  0  0  0  0
 12 11  1  0  0  0  0
 13 12  1  0  0  0  0
 20 13  2  0  0  0  0
 14 13  1  0  0  0  0
 15 14  2  0  0  0  0
 34 15  1  0  0  0  0
 17 12  2  0  0  0  0
 35 17  1  0  0  0  0
 18 17  1  0  0  0  0
 36 18  1  0  0  0  0
 19 18  2  0  0  0  0
 37 19  1  0  0  0  0
 38 20  1  0  0  0  0
 10  9  1  0  0  0  0
 16 15  1  0  0  0  0
 20 19  1  0  0  0  0
M  END
>  <FittedScore>
-30.51

$$$$
