A71EV2A-x4351a_lowest-energy
  FITTED

 38 40     0  0  0  0  0  0  0999 V2000
    9.2044   15.7340   19.2502 O    0  0  0  0  0  0  0  0  0  0  0  0
   10.2590   15.2281   19.5860 C    0  0  0  0  0  0  0  0  0  0  0  0
   11.0499   14.6407   18.6687 N    0  0  0  0  0  0  0  0  0  0  0  0
   10.9353   15.5599   20.9045 C    0  0  0  0  0  0  0  0  0  0  0  0
   10.8105   14.5089   22.0440 C    0  0  0  0  0  0  0  0  0  0  0  0
    9.3292   14.3226   22.5325 C    0  0  0  0  0  0  0  0  0  0  0  0
    9.2518   13.7123   23.8905 N    0  0  0  0  0  0  0  0  0  0  0  0
   10.1033   14.3044   24.9510 C    0  0  0  0  0  0  0  0  0  0  0  0
   11.5726   14.1852   24.5147 C    0  0  0  0  0  0  0  0  0  0  0  0
   11.7805   14.9484   23.1879 C    0  0  0  0  0  0  0  0  0  0  0  0
    8.7615   12.4479   24.1238 C    0  0  0  0  0  0  0  0  0  0  0  0
    7.7119   12.2247   25.0562 C    0  0  0  0  0  0  0  0  0  0  0  0
    7.4466   10.8751   25.4219 C    0  0  0  0  0  0  0  0  0  0  0  0
    8.1370    9.8496   24.8440 N    0  0  0  0  0  0  0  0  0  0  0  0
    9.0914   10.1479   23.9186 C    0  0  0  0  0  0  0  0  0  0  0  0
    9.4229   11.4087   23.5338 N    0  0  0  0  0  0  0  0  0  0  0  0
    6.9567   13.2663   25.6481 C    0  0  0  0  0  0  0  0  0  0  0  0
    5.9812   12.9782   26.6093 C    0  0  0  0  0  0  0  0  0  0  0  0
    5.7387   11.6539   26.9863 C    0  0  0  0  0  0  0  0  0  0  0  0
    6.4642   10.6131   26.3937 C    0  0  0  0  0  0  0  0  0  0  0  0
   12.0126   14.4093   18.8870 H    0  0  0  0  0  0  0  0  0  0  0  0
   10.7357   14.5847   17.7098 H    0  0  0  0  0  0  0  0  0  0  0  0
   10.5295   16.5140   21.2550 H    0  0  0  0  0  0  0  0  0  0  0  0
   11.9954   15.7687   20.7128 H    0  0  0  0  0  0  0  0  0  0  0  0
   11.1647   13.5450   21.6626 H    0  0  0  0  0  0  0  0  0  0  0  0
    8.8083   15.2840   22.5435 H    0  0  0  0  0  0  0  0  0  0  0  0
    8.7918   13.7172   21.7959 H    0  0  0  0  0  0  0  0  0  0  0  0
    9.8437   15.3539   25.1174 H    0  0  0  0  0  0  0  0  0  0  0  0
    9.9895   13.8132   25.9242 H    0  0  0  0  0  0  0  0  0  0  0  0
   12.2209   14.6092   25.2852 H    0  0  0  0  0  0  0  0  0  0  0  0
   11.8574   13.1345   24.4014 H    0  0  0  0  0  0  0  0  0  0  0  0
   11.6867   16.0209   23.3893 H    0  0  0  0  0  0  0  0  0  0  0  0
   12.8146   14.7919   22.8662 H    0  0  0  0  0  0  0  0  0  0  0  0
    9.6277    9.3244   23.4588 H    0  0  0  0  0  0  0  0  0  0  0  0
    7.1129   14.3076   25.3803 H    0  0  0  0  0  0  0  0  0  0  0  0
    5.4161   13.7875   27.0631 H    0  0  0  0  0  0  0  0  0  0  0  0
    4.9839   11.4339   27.7362 H    0  0  0  0  0  0  0  0  0  0  0  0
    6.2544    9.5892   26.6932 H    0  0  0  0  0  0  0  0  0  0  0  0
  6  7  1  0  0  0  0
  5  6  1  0  0  0  0
  4  5  1  0  0  0  0
  2  4  1  0  0  0  0
  1  2  2  0  0  0  0
  3  2  1  0  0  0  0
 21  3  1  0  0  0  0
 22  3  1  0  0  0  0
 23  4  1  0  0  0  0
 24  4  1  0  0  0  0
 10  5  1  0  0  0  0
 25  5  1  0  0  0  0
 26  6  1  0  0  0  0
 27  6  1  0  0  0  0
  8  7  1  0  0  0  0
 28  8  1  0  0  0  0
 29  8  1  0  0  0  0
  9  8  1  0  0  0  0
 30  9  1  0  0  0  0
 31  9  1  0  0  0  0
 32 10  1  0  0  0  0
 33 10  1  0  0  0  0
 11  7  1  0  0  0  0
 16 11  2  0  0  0  0
 12 11  1  0  0  0  0
 13 12  1  0  0  0  0
 20 13  2  0  0  0  0
 14 13  1  0  0  0  0
 15 14  2  0  0  0  0
 34 15  1  0  0  0  0
 17 12  2  0  0  0  0
 35 17  1  0  0  0  0
 18 17  1  0  0  0  0
 36 18  1  0  0  0  0
 19 18  2  0  0  0  0
 37 19  1  0  0  0  0
 38 20  1  0  0  0  0
 10  9  1  0  0  0  0
 16 15  1  0  0  0  0
 20 19  1  0  0  0  0
M  END
>  <FittedScore>
-29.53

$$$$
