A71EV2A-x6035a_lowest-energy
  FITTED

 55 58     0  0  0  0  0  0  0999 V2000
   10.0257   16.7874   19.2061 O    0  0  0  0  0  0  0  0  0  0  0  0
   10.5290   15.7437   19.5746 C    0  0  0  0  0  0  0  0  0  0  0  0
   10.9816   14.8533   18.6730 N    0  0  0  0  0  0  0  0  0  0  0  0
   10.5026   15.2577   21.0199 C    0  0  0  0  0  0  0  0  0  0  0  0
   11.3202   16.2048   21.9447 C    0  0  0  0  0  0  0  0  0  0  0  0
   11.2190   15.7334   23.4167 C    0  0  0  0  0  0  0  0  0  0  0  0
    9.7431   15.5327   23.8558 C    0  0  0  0  0  0  0  0  0  0  0  0
    9.0406   15.0579   21.5302 C    0  0  0  0  0  0  0  0  0  0  0  0
    8.9387   14.6203   22.9622 N    0  0  0  0  0  0  0  0  0  0  0  0
    8.0537   13.6456   23.3870 C    0  0  0  0  0  0  0  0  0  0  0  0
    7.2387   13.1516   22.6199 O    0  0  0  0  0  0  0  0  0  0  0  0
    8.0400   13.2294   24.8714 C    0  0  0  0  0  0  0  0  0  0  0  0
    7.1638   12.0090   25.1838 C    0  0  0  0  0  0  0  0  0  0  0  0
    7.5809   10.6827   24.9229 C    0  0  0  0  0  0  0  0  0  0  0  0
    9.2304   10.3528   24.2739 S    0  0  0  0  0  0  0  0  0  0  0  0
    9.3380    8.6198   23.7200 C    0  0  0  0  0  0  0  0  0  0  0  0
    5.8785   12.2497   25.7063 C    0  0  0  0  0  0  0  0  0  0  0  0
    4.9530   11.2086   25.9505 C    0  0  0  0  0  0  0  0  0  0  0  0
    5.3981    9.8906   25.6921 C    0  0  0  0  0  0  0  0  0  0  0  0
    6.6817    9.6368   25.1922 C    0  0  0  0  0  0  0  0  0  0  0  0
    3.5591   11.4706   26.4839 C    0  0  0  0  0  0  0  0  0  0  0  0
    2.5909   12.3507   25.8938 C    0  0  0  0  0  0  0  0  0  0  0  0
    2.8867   13.1751   24.7844 C    0  0  0  0  0  0  0  0  0  0  0  0
    1.9126   14.0010   24.2152 C    0  0  0  0  0  0  0  0  0  0  0  0
    0.6106   14.0040   24.7238 C    0  0  0  0  0  0  0  0  0  0  0  0
    0.2839   13.1960   25.8210 C    0  0  0  0  0  0  0  0  0  0  0  0
    1.2670   12.3875   26.4160 C    0  0  0  0  0  0  0  0  0  0  0  0
    0.9508   11.5951   27.5284 C    0  0  0  0  0  0  0  0  0  0  0  0
    1.8761   10.8199   28.1312 N    0  0  0  0  0  0  0  0  0  0  0  0
    3.1351   10.7476   27.6302 C    0  0  0  0  0  0  0  0  0  0  0  0
   11.1788   13.8922   18.9545 H    0  0  0  0  0  0  0  0  0  0  0  0
   11.0119   15.1086   17.6897 H    0  0  0  0  0  0  0  0  0  0  0  0
   10.9848   14.2730   21.0805 H    0  0  0  0  0  0  0  0  0  0  0  0
   12.3698   16.2128   21.6346 H    0  0  0  0  0  0  0  0  0  0  0  0
   10.9605   17.2362   21.8624 H    0  0  0  0  0  0  0  0  0  0  0  0
   11.7689   14.7956   23.5449 H    0  0  0  0  0  0  0  0  0  0  0  0
   11.6935   16.4717   24.0675 H    0  0  0  0  0  0  0  0  0  0  0  0
    9.7818   15.1996   24.8916 H    0  0  0  0  0  0  0  0  0  0  0  0
    9.2451   16.5061   23.8901 H    0  0  0  0  0  0  0  0  0  0  0  0
    8.5726   14.3377   20.8536 H    0  0  0  0  0  0  0  0  0  0  0  0
    8.4720   15.9856   21.4139 H    0  0  0  0  0  0  0  0  0  0  0  0
    9.0551   13.0226   25.2233 H    0  0  0  0  0  0  0  0  0  0  0  0
    7.7143   14.0866   25.4685 H    0  0  0  0  0  0  0  0  0  0  0  0
    8.5742    8.4199   22.9647 H    0  0  0  0  0  0  0  0  0  0  0  0
    9.2074    7.9548   24.5748 H    0  0  0  0  0  0  0  0  0  0  0  0
   10.3207    8.4360   23.2837 H    0  0  0  0  0  0  0  0  0  0  0  0
    5.5724   13.2765   25.9044 H    0  0  0  0  0  0  0  0  0  0  0  0
    4.7350    9.0441   25.8635 H    0  0  0  0  0  0  0  0  0  0  0  0
    6.9504    8.6026   25.0151 H    0  0  0  0  0  0  0  0  0  0  0  0
    3.8670   13.1915   24.3272 H    0  0  0  0  0  0  0  0  0  0  0  0
    2.1695   14.6268   23.3640 H    0  0  0  0  0  0  0  0  0  0  0  0
   -0.1512   14.6309   24.2681 H    0  0  0  0  0  0  0  0  0  0  0  0
   -0.7358   13.2050   26.2000 H    0  0  0  0  0  0  0  0  0  0  0  0
   -0.0608   11.6081   27.9338 H    0  0  0  0  0  0  0  0  0  0  0  0
    3.8446   10.1140   28.1587 H    0  0  0  0  0  0  0  0  0  0  0  0
 10 12  1  0  0  0  0
  9 10  1  0  0  0  0
  7  9  1  0  0  0  0
  6  7  1  0  0  0  0
  5  6  1  0  0  0  0
  4  5  1  0  0  0  0
  2  4  1  0  0  0  0
  1  2  2  0  0  0  0
  3  2  1  0  0  0  0
 31  3  1  0  0  0  0
 32  3  1  0  0  0  0
 33  4  1  0  0  0  0
 34  5  1  0  0  0  0
 35  5  1  0  0  0  0
 36  6  1  0  0  0  0
 37  6  1  0  0  0  0
 38  7  1  0  0  0  0
 39  7  1  0  0  0  0
  8  4  1  0  0  0  0
 40  8  1  0  0  0  0
 41  8  1  0  0  0  0
 11 10  2  0  0  0  0
 42 12  1  0  0  0  0
 43 12  1  0  0  0  0
 13 12  1  0  0  0  0
 14 13  1  0  0  0  0
 20 14  2  0  0  0  0
 15 14  1  0  0  0  0
 16 15  1  0  0  0  0
 44 16  1  0  0  0  0
 45 16  1  0  0  0  0
 46 16  1  0  0  0  0
 17 13  2  0  0  0  0
 47 17  1  0  0  0  0
 18 17  1  0  0  0  0
 19 18  2  0  0  0  0
 48 19  1  0  0  0  0
 49 20  1  0  0  0  0
 21 18  1  0  0  0  0
 30 21  1  0  0  0  0
 22 21  2  0  0  0  0
 23 22  1  0  0  0  0
 50 23  1  0  0  0  0
 24 23  2  0  0  0  0
 51 24  1  0  0  0  0
 25 24  1  0  0  0  0
 52 25  1  0  0  0  0
 26 25  2  0  0  0  0
 53 26  1  0  0  0  0
 27 26  1  0  0  0  0
 28 27  2  0  0  0  0
 54 28  1  0  0  0  0
 29 28  1  0  0  0  0
 55 30  1  0  0  0  0
  9  8  1  0  0  0  0
 20 19  1  0  0  0  0
 27 22  1  0  0  0  0
 30 29  2  0  0  0  0
M  END
>  <FittedScore>
-35.90

$$$$
