A71EV2A-x6035a_best-RMSD
  FITTED

 55 58     0  0  0  0  0  0  0999 V2000
   10.0738   16.8137   19.2652 O    0  0  0  0  0  0  0  0  0  0  0  0
   10.5294   15.7377   19.5992 C    0  0  0  0  0  0  0  0  0  0  0  0
   10.9734   14.8523   18.6859 N    0  0  0  0  0  0  0  0  0  0  0  0
   10.5109   15.2288   21.0286 C    0  0  0  0  0  0  0  0  0  0  0  0
   11.4116   16.1208   21.9264 C    0  0  0  0  0  0  0  0  0  0  0  0
   11.3370   15.6364   23.3914 C    0  0  0  0  0  0  0  0  0  0  0  0
    9.8672   15.5117   23.8719 C    0  0  0  0  0  0  0  0  0  0  0  0
    9.0551   15.0960   21.5747 C    0  0  0  0  0  0  0  0  0  0  0  0
    9.0044   14.6330   23.0003 N    0  0  0  0  0  0  0  0  0  0  0  0
    8.1582   13.6328   23.4382 C    0  0  0  0  0  0  0  0  0  0  0  0
    7.3038   13.1531   22.7030 O    0  0  0  0  0  0  0  0  0  0  0  0
    8.2765   13.1478   24.8930 C    0  0  0  0  0  0  0  0  0  0  0  0
    7.4027   11.9301   25.2156 C    0  0  0  0  0  0  0  0  0  0  0  0
    7.7738   10.6053   24.8765 C    0  0  0  0  0  0  0  0  0  0  0  0
    9.3975   10.2648   24.1785 S    0  0  0  0  0  0  0  0  0  0  0  0
    9.5155    8.4966   23.7774 C    0  0  0  0  0  0  0  0  0  0  0  0
    6.1535   12.1768   25.8073 C    0  0  0  0  0  0  0  0  0  0  0  0
    5.2215   11.1457   26.0521 C    0  0  0  0  0  0  0  0  0  0  0  0
    5.5912    9.8353   25.6735 C    0  0  0  0  0  0  0  0  0  0  0  0
    6.8391    9.5770   25.1018 C    0  0  0  0  0  0  0  0  0  0  0  0
    3.8984   11.4409   26.6913 C    0  0  0  0  0  0  0  0  0  0  0  0
    2.9078   12.3175   26.1403 C    0  0  0  0  0  0  0  0  0  0  0  0
    3.0849   12.9669   24.9009 C    0  0  0  0  0  0  0  0  0  0  0  0
    2.0856   13.7894   24.3702 C    0  0  0  0  0  0  0  0  0  0  0  0
    0.8848   13.9766   25.0679 C    0  0  0  0  0  0  0  0  0  0  0  0
    0.6911   13.3562   26.3070 C    0  0  0  0  0  0  0  0  0  0  0  0
    1.6962   12.5355   26.8506 C    0  0  0  0  0  0  0  0  0  0  0  0
    1.5192   11.9260   28.0989 C    0  0  0  0  0  0  0  0  0  0  0  0
    2.4623   11.1175   28.6403 N    0  0  0  0  0  0  0  0  0  0  0  0
    3.6022   10.8520   27.9488 C    0  0  0  0  0  0  0  0  0  0  0  0
   11.1334   13.8911   18.9732 H    0  0  0  0  0  0  0  0  0  0  0  0
   11.0383   15.0923   17.7051 H    0  0  0  0  0  0  0  0  0  0  0  0
   10.9424   14.2205   21.0485 H    0  0  0  0  0  0  0  0  0  0  0  0
   12.4463   16.0715   21.5727 H    0  0  0  0  0  0  0  0  0  0  0  0
   11.1022   17.1697   21.8632 H    0  0  0  0  0  0  0  0  0  0  0  0
   11.8379   14.6679   23.4875 H    0  0  0  0  0  0  0  0  0  0  0  0
   11.8728   16.3405   24.0308 H    0  0  0  0  0  0  0  0  0  0  0  0
    9.9124   15.1861   24.9088 H    0  0  0  0  0  0  0  0  0  0  0  0
    9.4157   16.5073   23.9102 H    0  0  0  0  0  0  0  0  0  0  0  0
    8.5280   14.4102   20.9049 H    0  0  0  0  0  0  0  0  0  0  0  0
    8.5320   16.0544   21.4934 H    0  0  0  0  0  0  0  0  0  0  0  0
    9.3179   12.9203   25.1329 H    0  0  0  0  0  0  0  0  0  0  0  0
    8.0116   13.9714   25.5634 H    0  0  0  0  0  0  0  0  0  0  0  0
    9.3648    7.9045   24.6828 H    0  0  0  0  0  0  0  0  0  0  0  0
   10.5079    8.2871   23.3774 H    0  0  0  0  0  0  0  0  0  0  0  0
    8.7652    8.2326   23.0299 H    0  0  0  0  0  0  0  0  0  0  0  0
    5.8823   13.1994   26.0663 H    0  0  0  0  0  0  0  0  0  0  0  0
    4.9021    9.0068   25.8268 H    0  0  0  0  0  0  0  0  0  0  0  0
    7.0595    8.5485   24.8431 H    0  0  0  0  0  0  0  0  0  0  0  0
    3.9833   12.8327   24.3067 H    0  0  0  0  0  0  0  0  0  0  0  0
    2.2447   14.2678   23.4089 H    0  0  0  0  0  0  0  0  0  0  0  0
    0.1050   14.6040   24.6469 H    0  0  0  0  0  0  0  0  0  0  0  0
   -0.2425   13.5165   26.8425 H    0  0  0  0  0  0  0  0  0  0  0  0
    0.6038   12.0931   28.6636 H    0  0  0  0  0  0  0  0  0  0  0  0
    4.3119   10.1640   28.4057 H    0  0  0  0  0  0  0  0  0  0  0  0
 10 12  1  0  0  0  0
  9 10  1  0  0  0  0
  7  9  1  0  0  0  0
  6  7  1  0  0  0  0
  5  6  1  0  0  0  0
  4  5  1  0  0  0  0
  2  4  1  0  0  0  0
  1  2  2  0  0  0  0
  3  2  1  0  0  0  0
 31  3  1  0  0  0  0
 32  3  1  0  0  0  0
 33  4  1  0  0  0  0
 34  5  1  0  0  0  0
 35  5  1  0  0  0  0
 36  6  1  0  0  0  0
 37  6  1  0  0  0  0
 38  7  1  0  0  0  0
 39  7  1  0  0  0  0
  8  4  1  0  0  0  0
 40  8  1  0  0  0  0
 41  8  1  0  0  0  0
 11 10  2  0  0  0  0
 42 12  1  0  0  0  0
 43 12  1  0  0  0  0
 13 12  1  0  0  0  0
 14 13  1  0  0  0  0
 20 14  2  0  0  0  0
 15 14  1  0  0  0  0
 16 15  1  0  0  0  0
 44 16  1  0  0  0  0
 45 16  1  0  0  0  0
 46 16  1  0  0  0  0
 17 13  2  0  0  0  0
 47 17  1  0  0  0  0
 18 17  1  0  0  0  0
 19 18  2  0  0  0  0
 48 19  1  0  0  0  0
 49 20  1  0  0  0  0
 21 18  1  0  0  0  0
 30 21  1  0  0  0  0
 22 21  2  0  0  0  0
 23 22  1  0  0  0  0
 50 23  1  0  0  0  0
 24 23  2  0  0  0  0
 51 24  1  0  0  0  0
 25 24  1  0  0  0  0
 52 25  1  0  0  0  0
 26 25  2  0  0  0  0
 53 26  1  0  0  0  0
 27 26  1  0  0  0  0
 28 27  2  0  0  0  0
 54 28  1  0  0  0  0
 29 28  1  0  0  0  0
 55 30  1  0  0  0  0
  9  8  1  0  0  0  0
 20 19  1  0  0  0  0
 27 22  1  0  0  0  0
 30 29  2  0  0  0  0
M  END
>  <FittedScore>
-34.88

$$$$
