A71EV2A-x4998a_best-RMSD
  FITTED

 31 32     0  0  0  0  0  0  0999 V2000
   11.9865   16.3232   22.0036 O    0  0  0  0  0  0  0  0  0  0  0  0
   11.5615   15.2284   21.6950 C    0  0  0  0  0  0  0  0  0  0  0  0
   11.5958   14.9522   20.3695 N    0  0  0  0  0  0  0  0  0  0  0  0
   11.2058   13.9319   22.5090 C    0  0  0  0  0  0  0  0  0  0  0  0
    9.6270   14.0716   22.4883 C    0  0  0  0  0  0  0  0  0  0  0  0
   10.9271   14.4409   23.9793 C    0  0  0  0  0  0  0  0  0  0  0  0
    9.4645   14.3440   23.9275 N    0  0  0  0  0  0  0  0  0  0  0  0
    8.5621   13.9757   24.8795 C    0  0  0  0  0  0  0  0  0  0  0  0
    8.8601   14.0150   26.0641 O    0  0  0  0  0  0  0  0  0  0  0  0
    7.2336   13.3633   24.4298 C    0  0  0  0  0  0  0  0  0  0  0  0
    6.9345   12.0269   25.1098 C    0  0  0  0  0  0  0  0  0  0  0  0
    5.9762   11.9005   26.1092 C    0  0  0  0  0  0  0  0  0  0  0  0
    5.8297   10.2569   26.7318 S    0  0  0  0  0  0  0  0  0  0  0  0
    7.0865    9.7713   25.6000 C    0  0  0  0  0  0  0  0  0  0  0  0
    7.5876   10.8230   24.8456 C    0  0  0  0  0  0  0  0  0  0  0  0
    8.9619   10.6645   23.7220 S    0  0  0  0  0  0  0  0  0  0  0  0
    9.0791    8.8903   23.3463 C    0  0  0  0  0  0  0  0  0  0  0  0
   12.0382   15.6020   19.7277 H    0  0  0  0  0  0  0  0  0  0  0  0
   11.3933   14.0071   20.0595 H    0  0  0  0  0  0  0  0  0  0  0  0
   11.6846   12.9632   22.3287 H    0  0  0  0  0  0  0  0  0  0  0  0
    9.1615   14.8643   21.8834 H    0  0  0  0  0  0  0  0  0  0  0  0
    9.1509   13.1523   22.1387 H    0  0  0  0  0  0  0  0  0  0  0  0
   11.2571   15.4419   24.2779 H    0  0  0  0  0  0  0  0  0  0  0  0
   11.3439   13.7659   24.7359 H    0  0  0  0  0  0  0  0  0  0  0  0
    6.4463   14.0856   24.6566 H    0  0  0  0  0  0  0  0  0  0  0  0
    7.1729   13.2100   23.3511 H    0  0  0  0  0  0  0  0  0  0  0  0
    5.3883   12.7299   26.4929 H    0  0  0  0  0  0  0  0  0  0  0  0
    7.4423    8.7486   25.5459 H    0  0  0  0  0  0  0  0  0  0  0  0
    9.3427    8.3448   24.2539 H    0  0  0  0  0  0  0  0  0  0  0  0
    9.8611    8.7204   22.6070 H    0  0  0  0  0  0  0  0  0  0  0  0
    8.1267    8.5312   22.9496 H    0  0  0  0  0  0  0  0  0  0  0  0
  4  5  1  0  0  0  0
  2  4  1  0  0  0  0
  1  2  2  0  0  0  0
  3  2  1  0  0  0  0
 18  3  1  0  0  0  0
 19  3  1  0  0  0  0
 20  4  1  0  0  0  0
 21  5  1  0  0  0  0
 22  5  1  0  0  0  0
  6  4  1  0  0  0  0
 23  6  1  0  0  0  0
 24  6  1  0  0  0  0
  7  5  1  0  0  0  0
  8  7  1  0  0  0  0
  9  8  2  0  0  0  0
 10  8  1  0  0  0  0
 25 10  1  0  0  0  0
 26 10  1  0  0  0  0
 11 10  1  0  0  0  0
 12 11  2  0  0  0  0
 27 12  1  0  0  0  0
 13 12  1  0  0  0  0
 14 13  1  0  0  0  0
 28 14  1  0  0  0  0
 15 14  2  0  0  0  0
 16 15  1  0  0  0  0
 17 16  1  0  0  0  0
 29 17  1  0  0  0  0
 30 17  1  0  0  0  0
 31 17  1  0  0  0  0
  7  6  1  0  0  0  0
 15 11  1  0  0  0  0
M  END
>  <FittedScore>
-21.50

$$$$
