A71EV2A-x5673a_best-RMSD
  FITTED

 36 37     0  0  0  0  0  0  0999 V2000
    6.3786   14.3906   22.5927 C    0  0  0  0  0  0  0  0  0  0  0  0
    7.6167   14.2647   23.5305 C    0  0  0  0  0  0  0  0  0  0  0  0
    7.8163   12.8066   24.0045 C    0  0  0  0  0  0  0  0  0  0  0  0
    8.8353   11.9747   23.4857 C    0  0  0  0  0  0  0  0  0  0  0  0
    8.9759   10.6531   23.9256 C    0  0  0  0  0  0  0  0  0  0  0  0
    8.0941   10.1339   24.8752 C    0  0  0  0  0  0  0  0  0  0  0  0
    7.0789   10.9380   25.4185 C    0  0  0  0  0  0  0  0  0  0  0  0
    6.0410   10.2842   26.6414 CL   0  0  0  0  0  0  0  0  0  0  0  0
    6.9429   12.2688   24.9861 C    0  0  0  0  0  0  0  0  0  0  0  0
    5.9538   13.0256   25.5063 F    0  0  0  0  0  0  0  0  0  0  0  0
    8.9211   14.8924   23.0864 N    0  0  0  0  0  0  0  0  0  0  0  0
    9.0948   14.9986   21.5997 C    0  0  0  0  0  0  0  0  0  0  0  0
   10.5480   15.2251   21.1071 C    0  0  0  0  0  0  0  0  0  0  0  0
   10.5622   15.6719   19.6487 C    0  0  0  0  0  0  0  0  0  0  0  0
   11.0362   14.7770   18.7599 N    0  0  0  0  0  0  0  0  0  0  0  0
    9.9779   16.6597   19.2421 O    0  0  0  0  0  0  0  0  0  0  0  0
   11.2990   16.2127   22.0257 C    0  0  0  0  0  0  0  0  0  0  0  0
   11.2806   15.6738   23.4737 C    0  0  0  0  0  0  0  0  0  0  0  0
    9.8921   15.2767   23.9939 C    0  0  0  0  0  0  0  0  0  0  0  0
    9.7185   15.2061   25.1983 O    0  0  0  0  0  0  0  0  0  0  0  0
    6.2339   15.4235   22.2789 H    0  0  0  0  0  0  0  0  0  0  0  0
    5.4648   14.0780   23.1019 H    0  0  0  0  0  0  0  0  0  0  0  0
    6.4814   13.7546   21.7070 H    0  0  0  0  0  0  0  0  0  0  0  0
    7.3119   14.8466   24.4051 H    0  0  0  0  0  0  0  0  0  0  0  0
    9.5170   12.3203   22.7139 H    0  0  0  0  0  0  0  0  0  0  0  0
    9.7705   10.0364   23.5143 H    0  0  0  0  0  0  0  0  0  0  0  0
    8.2146    9.1070   25.2113 H    0  0  0  0  0  0  0  0  0  0  0  0
    8.4655   15.8194   21.2508 H    0  0  0  0  0  0  0  0  0  0  0  0
    8.7406   14.0934   21.0962 H    0  0  0  0  0  0  0  0  0  0  0  0
   11.0628   14.2602   21.1983 H    0  0  0  0  0  0  0  0  0  0  0  0
   10.9233   14.9679   17.7678 H    0  0  0  0  0  0  0  0  0  0  0  0
   11.3013   13.8334   19.0445 H    0  0  0  0  0  0  0  0  0  0  0  0
   10.8415   17.2069   21.9888 H    0  0  0  0  0  0  0  0  0  0  0  0
   12.3323   16.3199   21.6893 H    0  0  0  0  0  0  0  0  0  0  0  0
   11.6946   16.4387   24.1379 H    0  0  0  0  0  0  0  0  0  0  0  0
   11.9381   14.8021   23.5448 H    0  0  0  0  0  0  0  0  0  0  0  0
  2 11  1  0  0  0  0
  1  2  1  0  0  0  0
 21  1  1  0  0  0  0
 22  1  1  0  0  0  0
 23  1  1  0  0  0  0
  3  2  1  0  0  0  0
 24  2  1  0  0  0  0
  4  3  2  0  0  0  0
  5  4  1  0  0  0  0
 25  4  1  0  0  0  0
  6  5  2  0  0  0  0
 26  5  1  0  0  0  0
  7  6  1  0  0  0  0
 27  6  1  0  0  0  0
  8  7  1  0  0  0  0
  9  7  2  0  0  0  0
 10  9  1  0  0  0  0
 12 11  1  0  0  0  0
 13 12  1  0  0  0  0
 28 12  1  0  0  0  0
 29 12  1  0  0  0  0
 14 13  1  0  0  0  0
 17 13  1  0  0  0  0
 30 13  1  0  0  0  0
 15 14  1  0  0  0  0
 16 14  2  0  0  0  0
 31 15  1  0  0  0  0
 32 15  1  0  0  0  0
 18 17  1  0  0  0  0
 33 17  1  0  0  0  0
 34 17  1  0  0  0  0
 19 18  1  0  0  0  0
 35 18  1  0  0  0  0
 36 18  1  0  0  0  0
 20 19  2  0  0  0  0
  9  3  1  0  0  0  0
 19 11  1  0  0  0  0
M  END
>  <FittedScore>
-31.13

$$$$
