A71EV2A-x4319a_best-RMSD
  FITTED

 40 41     0  0  0  0  0  0  0999 V2000
   12.5999   11.8254   25.8786 F    0  0  0  0  0  0  0  0  0  0  0  0
   11.6299   12.7568   25.7716 C    0  0  0  0  0  0  0  0  0  0  0  0
   12.2323   13.9464   25.5970 F    0  0  0  0  0  0  0  0  0  0  0  0
   10.7332   12.4961   24.6584 O    0  0  0  0  0  0  0  0  0  0  0  0
    9.7597   11.5016   24.6957 C    0  0  0  0  0  0  0  0  0  0  0  0
   10.1416   10.1519   24.5667 C    0  0  0  0  0  0  0  0  0  0  0  0
    9.1736    9.1398   24.5222 C    0  0  0  0  0  0  0  0  0  0  0  0
    7.8186    9.4622   24.6611 C    0  0  0  0  0  0  0  0  0  0  0  0
    7.4278   10.7969   24.8142 C    0  0  0  0  0  0  0  0  0  0  0  0
    8.3849   11.8310   24.8085 C    0  0  0  0  0  0  0  0  0  0  0  0
    7.8966   13.2828   24.8252 C    0  0  0  0  0  0  0  0  0  0  0  0
    7.8086   13.8419   23.3910 C    0  0  0  0  0  0  0  0  0  0  0  0
    7.0384   13.2749   22.6271 O    0  0  0  0  0  0  0  0  0  0  0  0
    8.5918   14.9000   22.9641 N    0  0  0  0  0  0  0  0  0  0  0  0
    9.3273   15.8960   23.8208 C    0  0  0  0  0  0  0  0  0  0  0  0
   10.8138   16.1039   23.4180 C    0  0  0  0  0  0  0  0  0  0  0  0
   10.9557   16.4915   21.9292 C    0  0  0  0  0  0  0  0  0  0  0  0
    8.7221   15.2754   21.5147 C    0  0  0  0  0  0  0  0  0  0  0  0
   10.2013   15.4664   21.0332 C    0  0  0  0  0  0  0  0  0  0  0  0
   10.2859   15.8621   19.5572 C    0  0  0  0  0  0  0  0  0  0  0  0
    9.8516   16.9005   19.1037 O    0  0  0  0  0  0  0  0  0  0  0  0
   10.7571   14.9321   18.7110 N    0  0  0  0  0  0  0  0  0  0  0  0
   11.0571   12.7838   26.7051 H    0  0  0  0  0  0  0  0  0  0  0  0
   11.1924    9.8889   24.4746 H    0  0  0  0  0  0  0  0  0  0  0  0
    9.4758    8.1033   24.3950 H    0  0  0  0  0  0  0  0  0  0  0  0
    7.0637    8.6793   24.6344 H    0  0  0  0  0  0  0  0  0  0  0  0
    6.3675   11.0276   24.8963 H    0  0  0  0  0  0  0  0  0  0  0  0
    6.8998   13.3494   25.2687 H    0  0  0  0  0  0  0  0  0  0  0  0
    8.5200   13.8330   25.5253 H    0  0  0  0  0  0  0  0  0  0  0  0
    8.8060   16.8568   23.7497 H    0  0  0  0  0  0  0  0  0  0  0  0
    9.3163   15.6675   24.8810 H    0  0  0  0  0  0  0  0  0  0  0  0
   11.2669   16.8751   24.0460 H    0  0  0  0  0  0  0  0  0  0  0  0
   11.3702   15.1833   23.5852 H    0  0  0  0  0  0  0  0  0  0  0  0
   10.5659   17.5025   21.7746 H    0  0  0  0  0  0  0  0  0  0  0  0
   12.0156   16.5096   21.6565 H    0  0  0  0  0  0  0  0  0  0  0  0
    8.1522   16.1970   21.3484 H    0  0  0  0  0  0  0  0  0  0  0  0
    8.2534   14.5424   20.8503 H    0  0  0  0  0  0  0  0  0  0  0  0
   10.6978   14.4966   21.1758 H    0  0  0  0  0  0  0  0  0  0  0  0
   10.7175   15.0990   17.7101 H    0  0  0  0  0  0  0  0  0  0  0  0
   10.9572   13.9921   19.0430 H    0  0  0  0  0  0  0  0  0  0  0  0
 11 12  1  0  0  0  0
 10 11  1  0  0  0  0
  9 10  2  0  0  0  0
  8  9  1  0  0  0  0
  7  8  2  0  0  0  0
  6  7  1  0  0  0  0
  5  6  2  0  0  0  0
  4  5  1  0  0  0  0
  2  4  1  0  0  0  0
  1  2  1  0  0  0  0
 23  2  1  0  0  0  0
  3  2  1  0  0  0  0
 24  6  1  0  0  0  0
 25  7  1  0  0  0  0
 26  8  1  0  0  0  0
 27  9  1  0  0  0  0
 28 11  1  0  0  0  0
 29 11  1  0  0  0  0
 13 12  2  0  0  0  0
 14 12  1  0  0  0  0
 15 14  1  0  0  0  0
 30 15  1  0  0  0  0
 31 15  1  0  0  0  0
 16 15  1  0  0  0  0
 32 16  1  0  0  0  0
 33 16  1  0  0  0  0
 17 16  1  0  0  0  0
 34 17  1  0  0  0  0
 35 17  1  0  0  0  0
 18 14  1  0  0  0  0
 36 18  1  0  0  0  0
 37 18  1  0  0  0  0
 19 17  1  0  0  0  0
 20 19  1  0  0  0  0
 38 19  1  0  0  0  0
 21 20  2  0  0  0  0
 22 20  1  0  0  0  0
 39 22  1  0  0  0  0
 40 22  1  0  0  0  0
 10  5  1  0  0  0  0
 19 18  1  0  0  0  0
M  END
>  <FittedScore>
-34.60

$$$$
