A71EV2A-x5171b_best-RMSD
  FITTED

 44 45     0  0  0  0  0  0  0999 V2000
    9.8502   16.7331   19.3073 O    0  0  0  0  0  0  0  0  0  0  0  0
   10.4040   15.7132   19.6759 C    0  0  0  0  0  0  0  0  0  0  0  0
   10.8484   14.8296   18.7622 N    0  0  0  0  0  0  0  0  0  0  0  0
   10.3805   15.1938   21.1193 C    0  0  0  0  0  0  0  0  0  0  0  0
   11.3992   15.9458   22.0363 C    0  0  0  0  0  0  0  0  0  0  0  0
   11.2952   15.4295   23.5129 C    0  0  0  0  0  0  0  0  0  0  0  0
   12.2212   16.1866   24.4747 C    0  0  0  0  0  0  0  0  0  0  0  0
   12.1996   17.3971   24.5984 O    0  0  0  0  0  0  0  0  0  0  0  0
   13.0142   15.4480   25.2811 N    0  0  0  0  0  0  0  0  0  0  0  0
    9.8119   15.5179   23.9911 C    0  0  0  0  0  0  0  0  0  0  0  0
    8.9352   15.1765   21.7276 C    0  0  0  0  0  0  0  0  0  0  0  0
    8.8882   14.6871   23.1467 N    0  0  0  0  0  0  0  0  0  0  0  0
    8.0848   13.6490   23.5857 C    0  0  0  0  0  0  0  0  0  0  0  0
    7.2786   13.1089   22.8435 O    0  0  0  0  0  0  0  0  0  0  0  0
    8.1970   13.1850   25.0466 C    0  0  0  0  0  0  0  0  0  0  0  0
    7.4405   11.8905   25.3795 C    0  0  0  0  0  0  0  0  0  0  0  0
    7.8870   10.6172   24.9385 C    0  0  0  0  0  0  0  0  0  0  0  0
    9.3722   10.4712   23.9420 S    0  0  0  0  0  0  0  0  0  0  0  0
    9.5607    8.7349   23.4445 C    0  0  0  0  0  0  0  0  0  0  0  0
    6.2840   11.9787   26.1776 C    0  0  0  0  0  0  0  0  0  0  0  0
    5.5747   10.8295   26.5424 C    0  0  0  0  0  0  0  0  0  0  0  0
    6.0022    9.5790   26.0963 C    0  0  0  0  0  0  0  0  0  0  0  0
    7.1460    9.4756   25.2997 C    0  0  0  0  0  0  0  0  0  0  0  0
   10.8082   15.0575   17.7746 H    0  0  0  0  0  0  0  0  0  0  0  0
   11.0227   13.8724   19.0440 H    0  0  0  0  0  0  0  0  0  0  0  0
   10.7005   14.1453   21.1167 H    0  0  0  0  0  0  0  0  0  0  0  0
   12.4137   15.7748   21.6660 H    0  0  0  0  0  0  0  0  0  0  0  0
   11.2244   17.0278   21.9882 H    0  0  0  0  0  0  0  0  0  0  0  0
   11.5817   14.3695   23.5105 H    0  0  0  0  0  0  0  0  0  0  0  0
   13.0353   14.4291   25.1861 H    0  0  0  0  0  0  0  0  0  0  0  0
   13.5490   15.8925   26.0328 H    0  0  0  0  0  0  0  0  0  0  0  0
    9.7755   15.2702   25.0491 H    0  0  0  0  0  0  0  0  0  0  0  0
    9.4791   16.5612   23.9522 H    0  0  0  0  0  0  0  0  0  0  0  0
    8.3181   14.5603   21.0660 H    0  0  0  0  0  0  0  0  0  0  0  0
    8.4919   16.1780   21.6849 H    0  0  0  0  0  0  0  0  0  0  0  0
    9.2410   13.0283   25.3276 H    0  0  0  0  0  0  0  0  0  0  0  0
    7.8467   13.9935   25.6944 H    0  0  0  0  0  0  0  0  0  0  0  0
    8.6929    8.4194   22.8672 H    0  0  0  0  0  0  0  0  0  0  0  0
    9.6675    8.1125   24.3324 H    0  0  0  0  0  0  0  0  0  0  0  0
   10.4612    8.6240   22.8395 H    0  0  0  0  0  0  0  0  0  0  0  0
    5.9229   12.9448   26.5256 H    0  0  0  0  0  0  0  0  0  0  0  0
    4.6905   10.9087   27.1641 H    0  0  0  0  0  0  0  0  0  0  0  0
    5.4620    8.6791   26.3744 H    0  0  0  0  0  0  0  0  0  0  0  0
    7.4276    8.4826   24.9792 H    0  0  0  0  0  0  0  0  0  0  0  0
 12 13  1  0  0  0  0
 10 12  1  0  0  0  0
  6 10  1  0  0  0  0
  7  6  1  0  0  0  0
  5  6  1  0  0  0  0
  4  5  1  0  0  0  0
  2  4  1  0  0  0  0
  1  2  2  0  0  0  0
  3  2  1  0  0  0  0
 24  3  1  0  0  0  0
 25  3  1  0  0  0  0
 26  4  1  0  0  0  0
 27  5  1  0  0  0  0
 28  5  1  0  0  0  0
 29  6  1  0  0  0  0
  8  7  2  0  0  0  0
  9  7  1  0  0  0  0
 30  9  1  0  0  0  0
 31  9  1  0  0  0  0
 32 10  1  0  0  0  0
 33 10  1  0  0  0  0
 11  4  1  0  0  0  0
 34 11  1  0  0  0  0
 35 11  1  0  0  0  0
 14 13  2  0  0  0  0
 15 13  1  0  0  0  0
 36 15  1  0  0  0  0
 37 15  1  0  0  0  0
 16 15  1  0  0  0  0
 17 16  1  0  0  0  0
 23 17  2  0  0  0  0
 18 17  1  0  0  0  0
 19 18  1  0  0  0  0
 38 19  1  0  0  0  0
 39 19  1  0  0  0  0
 40 19  1  0  0  0  0
 20 16  2  0  0  0  0
 41 20  1  0  0  0  0
 21 20  1  0  0  0  0
 42 21  1  0  0  0  0
 22 21  2  0  0  0  0
 43 22  1  0  0  0  0
 44 23  1  0  0  0  0
 12 11  1  0  0  0  0
 23 22  1  0  0  0  0
M  END
>  <FittedScore>
-38.21

$$$$
