A71EV2A-x3408a_best-RMSD
  FITTED

 28 28     0  0  0  0  0  0  0999 V2000
    9.7905   16.3388   19.4793 O    0  0  0  0  0  0  0  0  0  0  0  0
   10.3250   15.3095   19.8546 C    0  0  0  0  0  0  0  0  0  0  0  0
   10.9105   14.4842   18.9713 N    0  0  0  0  0  0  0  0  0  0  0  0
   10.1245   14.6707   21.2307 C    0  0  0  0  0  0  0  0  0  0  0  0
   10.9580   15.3833   22.3266 C    0  0  0  0  0  0  0  0  0  0  0  0
   10.7418   14.6877   23.6983 C    0  0  0  0  0  0  0  0  0  0  0  0
    9.2342   14.5376   24.0644 C    0  0  0  0  0  0  0  0  0  0  0  0
    8.6250   14.6123   21.6045 C    0  0  0  0  0  0  0  0  0  0  0  0
    8.4017   14.0068   22.9385 N    0  0  0  0  0  0  0  0  0  0  0  0
    6.8010   13.4417   23.2032 S    0  0  0  0  0  0  0  0  0  0  0  0
    6.8208   12.8827   24.5227 O    0  0  0  0  0  0  0  0  0  0  0  0
    6.3763   12.6640   22.0729 O    0  0  0  0  0  0  0  0  0  0  0  0
    5.8070   14.9060   23.2340 C    0  0  0  0  0  0  0  0  0  0  0  0
    5.7467   15.7374   24.2668 C    0  0  0  0  0  0  0  0  0  0  0  0
   10.9076   14.7374   17.9924 H    0  0  0  0  0  0  0  0  0  0  0  0
   11.0423   13.5087   19.2362 H    0  0  0  0  0  0  0  0  0  0  0  0
   10.4654   13.6288   21.2065 H    0  0  0  0  0  0  0  0  0  0  0  0
   12.0212   15.3420   22.0593 H    0  0  0  0  0  0  0  0  0  0  0  0
   10.6800   16.4420   22.3890 H    0  0  0  0  0  0  0  0  0  0  0  0
   11.2103   13.6974   23.6896 H    0  0  0  0  0  0  0  0  0  0  0  0
   11.2524   15.2652   24.4774 H    0  0  0  0  0  0  0  0  0  0  0  0
    9.1886   13.8936   24.9455 H    0  0  0  0  0  0  0  0  0  0  0  0
    8.8561   15.5103   24.3865 H    0  0  0  0  0  0  0  0  0  0  0  0
    8.1298   14.0605   20.8046 H    0  0  0  0  0  0  0  0  0  0  0  0
    8.1940   15.6192   21.5888 H    0  0  0  0  0  0  0  0  0  0  0  0
    5.2349   15.1055   22.3297 H    0  0  0  0  0  0  0  0  0  0  0  0
    6.3163   15.5509   25.1787 H    0  0  0  0  0  0  0  0  0  0  0  0
    5.1087   16.6208   24.2091 H    0  0  0  0  0  0  0  0  0  0  0  0
  4  8  1  0  0  0  0
  2  4  1  0  0  0  0
  1  2  2  0  0  0  0
  3  2  1  0  0  0  0
 15  3  1  0  0  0  0
 16  3  1  0  0  0  0
 17  4  1  0  0  0  0
  5  4  1  0  0  0  0
 18  5  1  0  0  0  0
 19  5  1  0  0  0  0
  6  5  1  0  0  0  0
 20  6  1  0  0  0  0
 21  6  1  0  0  0  0
  7  6  1  0  0  0  0
 22  7  1  0  0  0  0
 23  7  1  0  0  0  0
 24  8  1  0  0  0  0
 25  8  1  0  0  0  0
  9  7  1  0  0  0  0
 10  9  1  0  0  0  0
 11 10  2  0  0  0  0
 12 10  2  0  0  0  0
 13 10  1  0  0  0  0
 26 13  1  0  0  0  0
 14 13  2  0  0  0  0
 27 14  1  0  0  0  0
 28 14  1  0  0  0  0
  9  8  1  0  0  0  0
M  END
>  <FittedScore>
-27.58

$$$$
