A71EV2A-x3408a_lowest-energy
  FITTED

 28 28     0  0  0  0  0  0  0999 V2000
    9.8121   16.3647   19.4401 O    0  0  0  0  0  0  0  0  0  0  0  0
   10.3608   15.3511   19.8434 C    0  0  0  0  0  0  0  0  0  0  0  0
   10.9445   14.5146   18.9701 N    0  0  0  0  0  0  0  0  0  0  0  0
   10.1384   14.7425   21.2287 C    0  0  0  0  0  0  0  0  0  0  0  0
   10.8947   15.5162   22.3401 C    0  0  0  0  0  0  0  0  0  0  0  0
   10.6398   14.8470   23.7189 C    0  0  0  0  0  0  0  0  0  0  0  0
    9.1265   14.6635   24.0210 C    0  0  0  0  0  0  0  0  0  0  0  0
    8.6228   14.6171   21.5421 C    0  0  0  0  0  0  0  0  0  0  0  0
    8.3597   14.0620   22.8915 N    0  0  0  0  0  0  0  0  0  0  0  0
    6.7478   13.5151   23.1427 S    0  0  0  0  0  0  0  0  0  0  0  0
    6.3298   12.7250   22.0196 O    0  0  0  0  0  0  0  0  0  0  0  0
    6.7542   12.9701   24.4683 O    0  0  0  0  0  0  0  0  0  0  0  0
    5.7594   14.9879   23.1450 C    0  0  0  0  0  0  0  0  0  0  0  0
    5.6796   15.8254   24.1714 C    0  0  0  0  0  0  0  0  0  0  0  0
   10.9799   14.7779   17.9944 H    0  0  0  0  0  0  0  0  0  0  0  0
   11.0402   13.5333   19.2210 H    0  0  0  0  0  0  0  0  0  0  0  0
   10.5344   13.7176   21.2423 H    0  0  0  0  0  0  0  0  0  0  0  0
   11.9678   15.5120   22.1289 H    0  0  0  0  0  0  0  0  0  0  0  0
   10.5784   16.5634   22.3666 H    0  0  0  0  0  0  0  0  0  0  0  0
   11.1389   13.8733   23.7513 H    0  0  0  0  0  0  0  0  0  0  0  0
   11.0942   15.4551   24.5037 H    0  0  0  0  0  0  0  0  0  0  0  0
    9.0638   14.0502   24.9223 H    0  0  0  0  0  0  0  0  0  0  0  0
    8.7080   15.6367   24.2877 H    0  0  0  0  0  0  0  0  0  0  0  0
    8.1803   14.0075   20.7529 H    0  0  0  0  0  0  0  0  0  0  0  0
    8.1485   15.5978   21.4597 H    0  0  0  0  0  0  0  0  0  0  0  0
    5.2164   15.1970   22.2257 H    0  0  0  0  0  0  0  0  0  0  0  0
    6.2256   15.6392   25.0933 H    0  0  0  0  0  0  0  0  0  0  0  0
    5.0652   16.7210   24.1002 H    0  0  0  0  0  0  0  0  0  0  0  0
  4  8  1  0  0  0  0
  2  4  1  0  0  0  0
  1  2  2  0  0  0  0
  3  2  1  0  0  0  0
 15  3  1  0  0  0  0
 16  3  1  0  0  0  0
 17  4  1  0  0  0  0
  5  4  1  0  0  0  0
 18  5  1  0  0  0  0
 19  5  1  0  0  0  0
  6  5  1  0  0  0  0
 20  6  1  0  0  0  0
 21  6  1  0  0  0  0
  7  6  1  0  0  0  0
 22  7  1  0  0  0  0
 23  7  1  0  0  0  0
 24  8  1  0  0  0  0
 25  8  1  0  0  0  0
  9  7  1  0  0  0  0
 10  9  1  0  0  0  0
 11 10  2  0  0  0  0
 12 10  2  0  0  0  0
 13 10  1  0  0  0  0
 26 13  1  0  0  0  0
 14 13  2  0  0  0  0
 27 14  1  0  0  0  0
 28 14  1  0  0  0  0
  9  8  1  0  0  0  0
M  END
>  <FittedScore>
-27.40

$$$$
