A71EV2A-x6853a_lowest-energy
  FITTED

 47 48     0  0  0  0  0  0  0999 V2000
    3.7588   15.2753   23.8047 C    0  0  0  0  0  0  0  0  0  0  0  0
    4.8959   15.7101   22.8500 C    0  0  0  0  0  0  0  0  0  0  0  0
    5.9499   14.6218   22.6873 C    0  0  0  0  0  0  0  0  0  0  0  0
    6.0047   13.9253   21.6884 O    0  0  0  0  0  0  0  0  0  0  0  0
    6.7671   14.4489   23.7575 N    0  0  0  0  0  0  0  0  0  0  0  0
    7.7551   13.3627   23.9407 C    0  0  0  0  0  0  0  0  0  0  0  0
    9.1580   13.9200   24.2732 C    0  0  0  0  0  0  0  0  0  0  0  0
    9.6584   13.7456   25.3702 O    0  0  0  0  0  0  0  0  0  0  0  0
    9.8722   14.5401   23.2740 N    0  0  0  0  0  0  0  0  0  0  0  0
   11.1707   15.2407   23.4326 C    0  0  0  0  0  0  0  0  0  0  0  0
   11.5234   15.9131   22.0912 C    0  0  0  0  0  0  0  0  0  0  0  0
   10.7551   15.0533   21.0854 C    0  0  0  0  0  0  0  0  0  0  0  0
   10.4626   15.6863   19.7307 C    0  0  0  0  0  0  0  0  0  0  0  0
   11.2316   15.2423   18.7202 N    0  0  0  0  0  0  0  0  0  0  0  0
    9.4856   16.3744   19.5016 O    0  0  0  0  0  0  0  0  0  0  0  0
    9.4991   14.6210   21.8497 C    0  0  0  0  0  0  0  0  0  0  0  0
    7.2632   12.2507   24.8988 C    0  0  0  0  0  0  0  0  0  0  0  0
    6.2951   12.5145   25.8974 C    0  0  0  0  0  0  0  0  0  0  0  0
    5.7904   11.4886   26.7030 C    0  0  0  0  0  0  0  0  0  0  0  0
    6.2462   10.1790   26.5364 C    0  0  0  0  0  0  0  0  0  0  0  0
    7.2254    9.9033   25.5745 C    0  0  0  0  0  0  0  0  0  0  0  0
    7.7744   10.9280   24.7761 C    0  0  0  0  0  0  0  0  0  0  0  0
    9.1545   10.5824   23.6705 S    0  0  0  0  0  0  0  0  0  0  0  0
    9.1711    8.8025   23.3297 C    0  0  0  0  0  0  0  0  0  0  0  0
    3.3659   14.2942   23.5231 H    0  0  0  0  0  0  0  0  0  0  0  0
    2.9320   15.9924   23.7798 H    0  0  0  0  0  0  0  0  0  0  0  0
    4.1226   15.2116   24.8339 H    0  0  0  0  0  0  0  0  0  0  0  0
    5.3533   16.6336   23.2212 H    0  0  0  0  0  0  0  0  0  0  0  0
    4.4661   15.9602   21.8734 H    0  0  0  0  0  0  0  0  0  0  0  0
    6.6090   15.0283   24.5718 H    0  0  0  0  0  0  0  0  0  0  0  0
    7.8198   12.8534   22.9855 H    0  0  0  0  0  0  0  0  0  0  0  0
   11.9488   14.5273   23.7184 H    0  0  0  0  0  0  0  0  0  0  0  0
   11.0978   15.9939   24.2219 H    0  0  0  0  0  0  0  0  0  0  0  0
   12.6003   15.9040   21.8954 H    0  0  0  0  0  0  0  0  0  0  0  0
   11.1706   16.9505   22.0765 H    0  0  0  0  0  0  0  0  0  0  0  0
   11.3442   14.1449   20.9225 H    0  0  0  0  0  0  0  0  0  0  0  0
   10.9232   15.3907   17.7669 H    0  0  0  0  0  0  0  0  0  0  0  0
   12.0123   14.6156   18.8851 H    0  0  0  0  0  0  0  0  0  0  0  0
    9.1746   13.6575   21.4490 H    0  0  0  0  0  0  0  0  0  0  0  0
    8.6819   15.3388   21.7374 H    0  0  0  0  0  0  0  0  0  0  0  0
    5.9155   13.5191   26.0676 H    0  0  0  0  0  0  0  0  0  0  0  0
    5.0424   11.7139   27.4588 H    0  0  0  0  0  0  0  0  0  0  0  0
    5.8636    9.3771   27.1682 H    0  0  0  0  0  0  0  0  0  0  0  0
    7.5789    8.8826   25.5047 H    0  0  0  0  0  0  0  0  0  0  0  0
    8.1791    8.4763   23.0112 H    0  0  0  0  0  0  0  0  0  0  0  0
    9.4994    8.2420   24.2086 H    0  0  0  0  0  0  0  0  0  0  0  0
    9.8701    8.6170   22.5140 H    0  0  0  0  0  0  0  0  0  0  0  0
  5  6  1  0  0  0  0
  3  5  1  0  0  0  0
  2  3  1  0  0  0  0
  1  2  1  0  0  0  0
 25  1  1  0  0  0  0
 26  1  1  0  0  0  0
 27  1  1  0  0  0  0
 28  2  1  0  0  0  0
 29  2  1  0  0  0  0
  4  3  2  0  0  0  0
 30  5  1  0  0  0  0
  7  6  1  0  0  0  0
 17  6  1  0  0  0  0
 31  6  1  0  0  0  0
  8  7  2  0  0  0  0
  9  7  1  0  0  0  0
 10  9  1  0  0  0  0
 11 10  1  0  0  0  0
 32 10  1  0  0  0  0
 33 10  1  0  0  0  0
 12 11  1  0  0  0  0
 34 11  1  0  0  0  0
 35 11  1  0  0  0  0
 13 12  1  0  0  0  0
 16 12  1  0  0  0  0
 36 12  1  0  0  0  0
 14 13  1  0  0  0  0
 15 13  2  0  0  0  0
 37 14  1  0  0  0  0
 38 14  1  0  0  0  0
 39 16  1  0  0  0  0
 40 16  1  0  0  0  0
 18 17  2  0  0  0  0
 19 18  1  0  0  0  0
 41 18  1  0  0  0  0
 20 19  2  0  0  0  0
 42 19  1  0  0  0  0
 21 20  1  0  0  0  0
 43 20  1  0  0  0  0
 22 21  2  0  0  0  0
 44 21  1  0  0  0  0
 23 22  1  0  0  0  0
 24 23  1  0  0  0  0
 45 24  1  0  0  0  0
 46 24  1  0  0  0  0
 47 24  1  0  0  0  0
 16  9  1  0  0  0  0
 22 17  1  0  0  0  0
M  END
>  <FittedScore>
-37.42

$$$$
