A71EV2A-x6853a_best-RMSD
  FITTED

 47 48     0  0  0  0  0  0  0999 V2000
    3.7899   15.2032   23.8661 C    0  0  0  0  0  0  0  0  0  0  0  0
    4.8880   15.6458   22.8649 C    0  0  0  0  0  0  0  0  0  0  0  0
    5.9677   14.5825   22.6880 C    0  0  0  0  0  0  0  0  0  0  0  0
    6.0255   13.8838   21.6912 O    0  0  0  0  0  0  0  0  0  0  0  0
    6.8034   14.4259   23.7443 N    0  0  0  0  0  0  0  0  0  0  0  0
    7.7762   13.3288   23.9485 C    0  0  0  0  0  0  0  0  0  0  0  0
    9.1655   13.8996   24.2999 C    0  0  0  0  0  0  0  0  0  0  0  0
    9.6346   13.7508   25.4149 O    0  0  0  0  0  0  0  0  0  0  0  0
    9.8864   14.5308   23.3080 N    0  0  0  0  0  0  0  0  0  0  0  0
   11.1527   15.2712   23.4970 C    0  0  0  0  0  0  0  0  0  0  0  0
   11.5424   15.9227   22.1557 C    0  0  0  0  0  0  0  0  0  0  0  0
   10.8411   15.0133   21.1425 C    0  0  0  0  0  0  0  0  0  0  0  0
   10.5774   15.5978   19.7585 C    0  0  0  0  0  0  0  0  0  0  0  0
   10.8745   14.7653   18.7405 N    0  0  0  0  0  0  0  0  0  0  0  0
    9.8541   16.5556   19.5653 O    0  0  0  0  0  0  0  0  0  0  0  0
    9.5576   14.5847   21.8681 C    0  0  0  0  0  0  0  0  0  0  0  0
    7.2564   12.2311   24.9148 C    0  0  0  0  0  0  0  0  0  0  0  0
    6.2631   12.5152   25.8870 C    0  0  0  0  0  0  0  0  0  0  0  0
    5.7324   11.5041   26.6959 C    0  0  0  0  0  0  0  0  0  0  0  0
    6.1784   10.1892   26.5580 C    0  0  0  0  0  0  0  0  0  0  0  0
    7.1753    9.8909   25.6265 C    0  0  0  0  0  0  0  0  0  0  0  0
    7.7542   10.8995   24.8280 C    0  0  0  0  0  0  0  0  0  0  0  0
    9.1604   10.5164   23.7720 S    0  0  0  0  0  0  0  0  0  0  0  0
    9.1877    8.7329   23.4445 C    0  0  0  0  0  0  0  0  0  0  0  0
    3.4654   14.1789   23.6641 H    0  0  0  0  0  0  0  0  0  0  0  0
    2.9163   15.8602   23.7842 H    0  0  0  0  0  0  0  0  0  0  0  0
    4.1556   15.2495   24.8967 H    0  0  0  0  0  0  0  0  0  0  0  0
    5.3373   16.5881   23.1964 H    0  0  0  0  0  0  0  0  0  0  0  0
    4.4224   15.8589   21.8955 H    0  0  0  0  0  0  0  0  0  0  0  0
    6.6632   15.0219   24.5497 H    0  0  0  0  0  0  0  0  0  0  0  0
    7.8645   12.8107   22.9995 H    0  0  0  0  0  0  0  0  0  0  0  0
   11.9346   14.5836   23.8347 H    0  0  0  0  0  0  0  0  0  0  0  0
   11.0274   16.0394   24.2639 H    0  0  0  0  0  0  0  0  0  0  0  0
   12.6245   15.9365   22.0068 H    0  0  0  0  0  0  0  0  0  0  0  0
   11.1641   16.9473   22.1050 H    0  0  0  0  0  0  0  0  0  0  0  0
   11.4772   14.1192   21.0486 H    0  0  0  0  0  0  0  0  0  0  0  0
   10.7509   15.0707   17.7821 H    0  0  0  0  0  0  0  0  0  0  0  0
   11.0973   13.7861   18.9351 H    0  0  0  0  0  0  0  0  0  0  0  0
    9.2518   13.6128   21.4725 H    0  0  0  0  0  0  0  0  0  0  0  0
    8.7418   15.2949   21.7077 H    0  0  0  0  0  0  0  0  0  0  0  0
    5.8857   13.5212   26.0315 H    0  0  0  0  0  0  0  0  0  0  0  0
    4.9750   11.7462   27.4343 H    0  0  0  0  0  0  0  0  0  0  0  0
    5.7703    9.4006   27.1913 H    0  0  0  0  0  0  0  0  0  0  0  0
    7.5196    8.8618   25.5774 H    0  0  0  0  0  0  0  0  0  0  0  0
    9.4672    8.1990   24.3555 H    0  0  0  0  0  0  0  0  0  0  0  0
    9.9455    8.5346   22.6844 H    0  0  0  0  0  0  0  0  0  0  0  0
    8.2167    8.3893   23.0824 H    0  0  0  0  0  0  0  0  0  0  0  0
  5  6  1  0  0  0  0
  3  5  1  0  0  0  0
  2  3  1  0  0  0  0
  1  2  1  0  0  0  0
 25  1  1  0  0  0  0
 26  1  1  0  0  0  0
 27  1  1  0  0  0  0
 28  2  1  0  0  0  0
 29  2  1  0  0  0  0
  4  3  2  0  0  0  0
 30  5  1  0  0  0  0
  7  6  1  0  0  0  0
 17  6  1  0  0  0  0
 31  6  1  0  0  0  0
  8  7  2  0  0  0  0
  9  7  1  0  0  0  0
 10  9  1  0  0  0  0
 11 10  1  0  0  0  0
 32 10  1  0  0  0  0
 33 10  1  0  0  0  0
 12 11  1  0  0  0  0
 34 11  1  0  0  0  0
 35 11  1  0  0  0  0
 13 12  1  0  0  0  0
 16 12  1  0  0  0  0
 36 12  1  0  0  0  0
 14 13  1  0  0  0  0
 15 13  2  0  0  0  0
 37 14  1  0  0  0  0
 38 14  1  0  0  0  0
 39 16  1  0  0  0  0
 40 16  1  0  0  0  0
 18 17  2  0  0  0  0
 19 18  1  0  0  0  0
 41 18  1  0  0  0  0
 20 19  2  0  0  0  0
 42 19  1  0  0  0  0
 21 20  1  0  0  0  0
 43 20  1  0  0  0  0
 22 21  2  0  0  0  0
 44 21  1  0  0  0  0
 23 22  1  0  0  0  0
 24 23  1  0  0  0  0
 45 24  1  0  0  0  0
 46 24  1  0  0  0  0
 47 24  1  0  0  0  0
 16  9  1  0  0  0  0
 22 17  1  0  0  0  0
M  END
>  <FittedScore>
-37.18

$$$$
