A71EV2A-x4372a_lowest-energy
  FITTED

 36 37     0  0  0  0  0  0  0999 V2000
    7.3932   13.0251   23.1074 O    0  0  0  0  0  0  0  0  0  0  0  0
    8.3342   13.4876   23.7430 C    0  0  0  0  0  0  0  0  0  0  0  0
    9.1728   14.4522   23.2102 N    0  0  0  0  0  0  0  0  0  0  0  0
   10.1452   15.3177   23.9811 C    0  0  0  0  0  0  0  0  0  0  0  0
   11.5312   15.5072   23.3098 C    0  0  0  0  0  0  0  0  0  0  0  0
   11.3978   16.0108   21.8592 C    0  0  0  0  0  0  0  0  0  0  0  0
    9.0608   14.9153   21.7899 C    0  0  0  0  0  0  0  0  0  0  0  0
   10.4416   15.0662   21.0850 C    0  0  0  0  0  0  0  0  0  0  0  0
   10.2906   15.5411   19.6533 C    0  0  0  0  0  0  0  0  0  0  0  0
    9.6603   16.5324   19.3279 O    0  0  0  0  0  0  0  0  0  0  0  0
   10.8124   14.7179   18.7296 N    0  0  0  0  0  0  0  0  0  0  0  0
    8.5645   13.0447   25.1936 C    0  0  0  0  0  0  0  0  0  0  0  0
    7.5483   12.0464   25.7475 C    0  0  0  0  0  0  0  0  0  0  0  0
    7.6521   10.6508   25.5278 C    0  0  0  0  0  0  0  0  0  0  0  0
    8.6181   10.1127   24.7221 O    0  0  0  0  0  0  0  0  0  0  0  0
    6.7871    9.7771   26.1094 N    0  0  0  0  0  0  0  0  0  0  0  0
    5.7846   10.2470   26.9013 C    0  0  0  0  0  0  0  0  0  0  0  0
    5.6023   11.6166   27.1367 C    0  0  0  0  0  0  0  0  0  0  0  0
    6.4915   12.5251   26.5509 C    0  0  0  0  0  0  0  0  0  0  0  0
    9.6806   16.2972   24.1345 H    0  0  0  0  0  0  0  0  0  0  0  0
   10.3625   14.9394   24.9759 H    0  0  0  0  0  0  0  0  0  0  0  0
   12.1301   16.2187   23.8868 H    0  0  0  0  0  0  0  0  0  0  0  0
   12.0757   14.5584   23.3113 H    0  0  0  0  0  0  0  0  0  0  0  0
   11.0244   17.0407   21.8474 H    0  0  0  0  0  0  0  0  0  0  0  0
   12.3816   16.0265   21.3798 H    0  0  0  0  0  0  0  0  0  0  0  0
    8.5113   15.8595   21.7827 H    0  0  0  0  0  0  0  0  0  0  0  0
    8.4691   14.2284   21.1775 H    0  0  0  0  0  0  0  0  0  0  0  0
   10.8936   14.0641   21.0900 H    0  0  0  0  0  0  0  0  0  0  0  0
   10.7262   14.9524   17.7547 H    0  0  0  0  0  0  0  0  0  0  0  0
   11.1440   13.7860   18.9908 H    0  0  0  0  0  0  0  0  0  0  0  0
    8.5483   13.9213   25.8430 H    0  0  0  0  0  0  0  0  0  0  0  0
    9.5655   12.6152   25.2967 H    0  0  0  0  0  0  0  0  0  0  0  0
    8.5386    9.1409   24.7358 H    0  0  0  0  0  0  0  0  0  0  0  0
    5.0907    9.5395   27.3467 H    0  0  0  0  0  0  0  0  0  0  0  0
    4.7849   11.9691   27.7601 H    0  0  0  0  0  0  0  0  0  0  0  0
    6.3614   13.5911   26.7270 H    0  0  0  0  0  0  0  0  0  0  0  0
  3  2  1  0  0  0  0
  4  3  1  0  0  0  0
 20  4  1  0  0  0  0
  1  2  2  0  0  0  0
 21  4  1  0  0  0  0
  5  4  1  0  0  0  0
 22  5  1  0  0  0  0
 23  5  1  0  0  0  0
  6  5  1  0  0  0  0
 24  6  1  0  0  0  0
 25  6  1  0  0  0  0
  7  3  1  0  0  0  0
 26  7  1  0  0  0  0
 27  7  1  0  0  0  0
  8  6  1  0  0  0  0
  9  8  1  0  0  0  0
 28  8  1  0  0  0  0
 10  9  2  0  0  0  0
 11  9  1  0  0  0  0
 29 11  1  0  0  0  0
 30 11  1  0  0  0  0
 12  2  1  0  0  0  0
 31 12  1  0  0  0  0
 32 12  1  0  0  0  0
 13 12  1  0  0  0  0
 19 13  2  0  0  0  0
 14 13  1  0  0  0  0
 15 14  1  0  0  0  0
 33 15  1  0  0  0  0
 16 14  2  0  0  0  0
 17 16  1  0  0  0  0
 34 17  1  0  0  0  0
 18 17  2  0  0  0  0
 35 18  1  0  0  0  0
 36 19  1  0  0  0  0
  8  7  1  0  0  0  0
 19 18  1  0  0  0  0
M  END
>  <FittedScore>
-29.82

$$$$
