A71EV2A-x5779a_best-RMSD
  FITTED

 33 34     0  0  0  0  0  0  0999 V2000
   10.8750   14.7412   18.7258 N    0  0  0  0  0  0  0  0  0  0  0  0
   10.5693   15.6611   19.6549 C    0  0  0  0  0  0  0  0  0  0  0  0
    9.9194   16.6439   19.3459 O    0  0  0  0  0  0  0  0  0  0  0  0
   10.7916   15.1846   21.0852 C    0  0  0  0  0  0  0  0  0  0  0  0
   11.5326   16.1480   22.0196 C    0  0  0  0  0  0  0  0  0  0  0  0
   11.0939   15.6584   23.4157 C    0  0  0  0  0  0  0  0  0  0  0  0
    9.7741   14.9991   23.2756 N    0  0  0  0  0  0  0  0  0  0  0  0
    8.9997   14.5719   24.3257 C    0  0  0  0  0  0  0  0  0  0  0  0
    9.3518   14.7326   25.4855 O    0  0  0  0  0  0  0  0  0  0  0  0
    7.7138   13.7832   24.0520 C    0  0  0  0  0  0  0  0  0  0  0  0
    7.7985   12.3808   24.5514 N    0  0  0  0  0  0  0  0  0  0  0  0
    6.9290   11.9499   25.6054 C    0  0  0  0  0  0  0  0  0  0  0  0
    6.8271   10.6686   25.9790 C    0  0  0  0  0  0  0  0  0  0  0  0
    5.6783   10.1806   27.3996 BR   0  0  0  0  0  0  0  0  0  0  0  0
    7.5688    9.7440   25.3475 C    0  0  0  0  0  0  0  0  0  0  0  0
    8.4690   10.0645   24.4027 C    0  0  0  0  0  0  0  0  0  0  0  0
    9.4032    8.7985   23.6657 CL   0  0  0  0  0  0  0  0  0  0  0  0
    8.6606   11.4404   24.0021 C    0  0  0  0  0  0  0  0  0  0  0  0
    9.4732   11.7047   23.1378 O    0  0  0  0  0  0  0  0  0  0  0  0
    9.4860   14.8707   21.8281 C    0  0  0  0  0  0  0  0  0  0  0  0
   11.1173   13.7913   18.9925 H    0  0  0  0  0  0  0  0  0  0  0  0
   10.7439   14.9611   17.7526 H    0  0  0  0  0  0  0  0  0  0  0  0
   11.3833   14.2597   21.0770 H    0  0  0  0  0  0  0  0  0  0  0  0
   11.2226   17.1855   21.8605 H    0  0  0  0  0  0  0  0  0  0  0  0
   12.6159   16.0831   21.8901 H    0  0  0  0  0  0  0  0  0  0  0  0
   11.0253   16.5084   24.1023 H    0  0  0  0  0  0  0  0  0  0  0  0
   11.8198   14.9466   23.8239 H    0  0  0  0  0  0  0  0  0  0  0  0
    7.3991   13.7552   23.0083 H    0  0  0  0  0  0  0  0  0  0  0  0
    6.8999   14.3260   24.5431 H    0  0  0  0  0  0  0  0  0  0  0  0
    6.3438   12.7280   26.0953 H    0  0  0  0  0  0  0  0  0  0  0  0
    7.4616    8.6939   25.6251 H    0  0  0  0  0  0  0  0  0  0  0  0
    8.6852   15.5708   21.5597 H    0  0  0  0  0  0  0  0  0  0  0  0
    9.1711   13.8618   21.5536 H    0  0  0  0  0  0  0  0  0  0  0  0
  6  7  1  0  0  0  0
  5  6  1  0  0  0  0
  4  5  1  0  0  0  0
  2  4  1  0  0  0  0
  1  2  1  0  0  0  0
 21  1  1  0  0  0  0
 22  1  1  0  0  0  0
  3  2  2  0  0  0  0
 23  4  1  0  0  0  0
 24  5  1  0  0  0  0
 25  5  1  0  0  0  0
 26  6  1  0  0  0  0
 27  6  1  0  0  0  0
  8  7  1  0  0  0  0
 20  7  1  0  0  0  0
  9  8  2  0  0  0  0
 10  8  1  0  0  0  0
 11 10  1  0  0  0  0
 28 10  1  0  0  0  0
 29 10  1  0  0  0  0
 12 11  1  0  0  0  0
 13 12  2  0  0  0  0
 30 12  1  0  0  0  0
 14 13  1  0  0  0  0
 15 13  1  0  0  0  0
 16 15  2  0  0  0  0
 31 15  1  0  0  0  0
 17 16  1  0  0  0  0
 18 16  1  0  0  0  0
 19 18  2  0  0  0  0
 32 20  1  0  0  0  0
 33 20  1  0  0  0  0
 18 11  1  0  0  0  0
 20  4  1  0  0  0  0
M  END
>  <FittedScore>
-29.83

$$$$
