A71EV2A-x5779a_lowest-energy
  FITTED

 33 34     0  0  0  0  0  0  0999 V2000
   10.8376   14.6494   18.7474 N    0  0  0  0  0  0  0  0  0  0  0  0
   10.6388   15.6177   19.6671 C    0  0  0  0  0  0  0  0  0  0  0  0
   10.0295   16.6261   19.3558 O    0  0  0  0  0  0  0  0  0  0  0  0
   10.8739   15.1623   21.1077 C    0  0  0  0  0  0  0  0  0  0  0  0
   11.5700   16.1575   22.0487 C    0  0  0  0  0  0  0  0  0  0  0  0
   11.1150   15.6739   23.4406 C    0  0  0  0  0  0  0  0  0  0  0  0
    9.8129   14.9851   23.2843 N    0  0  0  0  0  0  0  0  0  0  0  0
    9.0282   14.5589   24.3268 C    0  0  0  0  0  0  0  0  0  0  0  0
    9.3623   14.7158   25.4911 O    0  0  0  0  0  0  0  0  0  0  0  0
    7.7433   13.7810   24.0372 C    0  0  0  0  0  0  0  0  0  0  0  0
    7.8213   12.3809   24.5449 N    0  0  0  0  0  0  0  0  0  0  0  0
    6.9467   11.9511   25.5942 C    0  0  0  0  0  0  0  0  0  0  0  0
    6.8352   10.6672   25.9548 C    0  0  0  0  0  0  0  0  0  0  0  0
    5.6453   10.1728   27.3359 BR   0  0  0  0  0  0  0  0  0  0  0  0
    7.5906    9.7475   25.3347 C    0  0  0  0  0  0  0  0  0  0  0  0
    8.5089   10.0727   24.4084 C    0  0  0  0  0  0  0  0  0  0  0  0
    9.4681    8.8200   23.6888 CL   0  0  0  0  0  0  0  0  0  0  0  0
    8.6951   11.4489   24.0067 C    0  0  0  0  0  0  0  0  0  0  0  0
    9.5156   11.7188   23.1501 O    0  0  0  0  0  0  0  0  0  0  0  0
    9.5626   14.8212   21.8355 C    0  0  0  0  0  0  0  0  0  0  0  0
   10.6729   14.8410   17.7696 H    0  0  0  0  0  0  0  0  0  0  0  0
   11.0281   13.6877   19.0257 H    0  0  0  0  0  0  0  0  0  0  0  0
   11.4977   14.2567   21.1125 H    0  0  0  0  0  0  0  0  0  0  0  0
   11.2402   17.1861   21.8693 H    0  0  0  0  0  0  0  0  0  0  0  0
   12.6580   16.1268   21.9478 H    0  0  0  0  0  0  0  0  0  0  0  0
   11.0191   16.5301   24.1126 H    0  0  0  0  0  0  0  0  0  0  0  0
   11.8416   14.9828   23.8786 H    0  0  0  0  0  0  0  0  0  0  0  0
    7.4484   13.7495   22.9873 H    0  0  0  0  0  0  0  0  0  0  0  0
    6.9346   14.3326   24.5228 H    0  0  0  0  0  0  0  0  0  0  0  0
    6.3727   12.7314   26.0922 H    0  0  0  0  0  0  0  0  0  0  0  0
    7.4724    8.6966   25.6067 H    0  0  0  0  0  0  0  0  0  0  0  0
    8.7472   15.4821   21.5221 H    0  0  0  0  0  0  0  0  0  0  0  0
    9.2934   13.7970   21.5798 H    0  0  0  0  0  0  0  0  0  0  0  0
  6  7  1  0  0  0  0
  5  6  1  0  0  0  0
  4  5  1  0  0  0  0
  2  4  1  0  0  0  0
  1  2  1  0  0  0  0
 21  1  1  0  0  0  0
 22  1  1  0  0  0  0
  3  2  2  0  0  0  0
 23  4  1  0  0  0  0
 24  5  1  0  0  0  0
 25  5  1  0  0  0  0
 26  6  1  0  0  0  0
 27  6  1  0  0  0  0
  8  7  1  0  0  0  0
 20  7  1  0  0  0  0
  9  8  2  0  0  0  0
 10  8  1  0  0  0  0
 11 10  1  0  0  0  0
 28 10  1  0  0  0  0
 29 10  1  0  0  0  0
 12 11  1  0  0  0  0
 13 12  2  0  0  0  0
 30 12  1  0  0  0  0
 14 13  1  0  0  0  0
 15 13  1  0  0  0  0
 16 15  2  0  0  0  0
 31 15  1  0  0  0  0
 17 16  1  0  0  0  0
 18 16  1  0  0  0  0
 19 18  2  0  0  0  0
 32 20  1  0  0  0  0
 33 20  1  0  0  0  0
 18 11  1  0  0  0  0
 20  4  1  0  0  0  0
M  END
>  <FittedScore>
-30.30

$$$$
