A71EV2A-x3564a_best-RMSD
  FITTED

 32 33     0  0  0  0  0  0  0999 V2000
   12.4203   16.5323   18.6757 O    0  0  0  0  0  0  0  0  0  0  0  0
   11.8751   15.6507   19.3022 C    0  0  0  0  0  0  0  0  0  0  0  0
   11.2066   14.6795   18.6426 N    0  0  0  0  0  0  0  0  0  0  0  0
   12.0354   15.4939   20.7933 C    0  0  0  0  0  0  0  0  0  0  0  0
   12.8942   16.3576   21.5037 C    0  0  0  0  0  0  0  0  0  0  0  0
   13.2071   16.1740   22.8097 N    0  0  0  0  0  0  0  0  0  0  0  0
   12.6618   15.1366   23.4774 C    0  0  0  0  0  0  0  0  0  0  0  0
   11.3811   14.4869   21.5324 C    0  0  0  0  0  0  0  0  0  0  0  0
   11.7095   14.2846   22.8879 C    0  0  0  0  0  0  0  0  0  0  0  0
   11.1088   13.1832   23.7042 C    0  0  0  0  0  0  0  0  0  0  0  0
   11.6503   12.7583   24.7077 O    0  0  0  0  0  0  0  0  0  0  0  0
    9.8030   12.9563   23.4140 N    0  0  0  0  0  0  0  0  0  0  0  0
    8.9083   12.1736   24.2050 C    0  0  0  0  0  0  0  0  0  0  0  0
    8.9345   10.7581   24.2034 C    0  0  0  0  0  0  0  0  0  0  0  0
    9.9201    9.9662   23.3353 C    0  0  0  0  0  0  0  0  0  0  0  0
    7.9840   12.8706   25.0008 C    0  0  0  0  0  0  0  0  0  0  0  0
    7.0773   12.1693   25.8024 C    0  0  0  0  0  0  0  0  0  0  0  0
    7.0936   10.7700   25.8116 C    0  0  0  0  0  0  0  0  0  0  0  0
    8.0100   10.0727   25.0126 C    0  0  0  0  0  0  0  0  0  0  0  0
   11.0673   14.7558   17.6426 H    0  0  0  0  0  0  0  0  0  0  0  0
   10.9007   13.8352   19.1256 H    0  0  0  0  0  0  0  0  0  0  0  0
   13.3744   17.1872   20.9931 H    0  0  0  0  0  0  0  0  0  0  0  0
   12.9493   14.9901   24.5158 H    0  0  0  0  0  0  0  0  0  0  0  0
   10.6560   13.8314   21.0561 H    0  0  0  0  0  0  0  0  0  0  0  0
    9.3281   13.6558   22.8441 H    0  0  0  0  0  0  0  0  0  0  0  0
   10.9530   10.2234   23.5834 H    0  0  0  0  0  0  0  0  0  0  0  0
    9.7597   10.1816   22.2754 H    0  0  0  0  0  0  0  0  0  0  0  0
    9.8217    8.8852   23.4622 H    0  0  0  0  0  0  0  0  0  0  0  0
    7.9708   13.9613   25.0012 H    0  0  0  0  0  0  0  0  0  0  0  0
    6.3662   12.7175   26.4136 H    0  0  0  0  0  0  0  0  0  0  0  0
    6.3876   10.2284   26.4318 H    0  0  0  0  0  0  0  0  0  0  0  0
    7.9986    8.9849   25.0357 H    0  0  0  0  0  0  0  0  0  0  0  0
 10 12  1  0  0  0  0
  9 10  1  0  0  0  0
  7  9  1  0  0  0  0
  6  7  2  0  0  0  0
  5  6  1  0  0  0  0
  4  5  2  0  0  0  0
  2  4  1  0  0  0  0
  1  2  2  0  0  0  0
  3  2  1  0  0  0  0
 20  3  1  0  0  0  0
 21  3  1  0  0  0  0
 22  5  1  0  0  0  0
 23  7  1  0  0  0  0
  8  4  1  0  0  0  0
 24  8  1  0  0  0  0
 11 10  2  0  0  0  0
 25 12  1  0  0  0  0
 13 12  1  0  0  0  0
 14 13  1  0  0  0  0
 19 14  2  0  0  0  0
 15 14  1  0  0  0  0
 26 15  1  0  0  0  0
 27 15  1  0  0  0  0
 28 15  1  0  0  0  0
 16 13  2  0  0  0  0
 29 16  1  0  0  0  0
 17 16  1  0  0  0  0
 30 17  1  0  0  0  0
 18 17  2  0  0  0  0
 31 18  1  0  0  0  0
 32 19  1  0  0  0  0
  9  8  2  0  0  0  0
 19 18  1  0  0  0  0
M  END
>  <FittedScore>
-33.41

$$$$
