A71EV2A-x4845a_lowest-energy
  FITTED

 44 45     0  0  0  0  0  0  0999 V2000
    9.8968   16.6154   19.3875 O    0  0  0  0  0  0  0  0  0  0  0  0
   10.4482   15.5688   19.6865 C    0  0  0  0  0  0  0  0  0  0  0  0
   10.9907   14.7827   18.7473 N    0  0  0  0  0  0  0  0  0  0  0  0
   10.4578   14.9868   21.0833 C    0  0  0  0  0  0  0  0  0  0  0  0
   11.4127   15.7957   21.9956 C    0  0  0  0  0  0  0  0  0  0  0  0
   11.3783   15.2028   23.4193 C    0  0  0  0  0  0  0  0  0  0  0  0
    9.9259   15.1213   23.9577 C    0  0  0  0  0  0  0  0  0  0  0  0
    9.0179   14.8596   21.6681 C    0  0  0  0  0  0  0  0  0  0  0  0
    8.9786   14.3449   23.0777 N    0  0  0  0  0  0  0  0  0  0  0  0
    8.0420   13.4228   23.5048 C    0  0  0  0  0  0  0  0  0  0  0  0
    7.2322   12.9369   22.7297 O    0  0  0  0  0  0  0  0  0  0  0  0
    7.9357   13.1134   25.0040 C    0  0  0  0  0  0  0  0  0  0  0  0
    6.9135   12.0318   25.3638 C    0  0  0  0  0  0  0  0  0  0  0  0
    7.1701   10.6373   25.2701 C    0  0  0  0  0  0  0  0  0  0  0  0
    8.7783    9.8988   24.5169 BR   0  0  0  0  0  0  0  0  0  0  0  0
    6.1920    9.7299   25.7117 C    0  0  0  0  0  0  0  0  0  0  0  0
    5.6513   12.4719   25.8062 C    0  0  0  0  0  0  0  0  0  0  0  0
    4.6586   11.5600   26.1889 C    0  0  0  0  0  0  0  0  0  0  0  0
    3.4039   12.0096   26.5785 O    0  0  0  0  0  0  0  0  0  0  0  0
    2.6397   12.9168   25.7405 C    0  0  0  0  0  0  0  0  0  0  0  0
    4.9535   10.1853   26.1879 C    0  0  0  0  0  0  0  0  0  0  0  0
    4.0373    9.2608   26.6483 O    0  0  0  0  0  0  0  0  0  0  0  0
    3.7387    9.1740   28.0638 C    0  0  0  0  0  0  0  0  0  0  0  0
   11.2714   13.8281   18.9723 H    0  0  0  0  0  0  0  0  0  0  0  0
   10.9118   15.0643   17.7813 H    0  0  0  0  0  0  0  0  0  0  0  0
   10.8560   13.9626   21.0405 H    0  0  0  0  0  0  0  0  0  0  0  0
   12.4330   15.7514   21.6002 H    0  0  0  0  0  0  0  0  0  0  0  0
   11.1314   16.8543   22.0206 H    0  0  0  0  0  0  0  0  0  0  0  0
   11.8340   14.2069   23.4170 H    0  0  0  0  0  0  0  0  0  0  0  0
   11.9819   15.8274   24.0824 H    0  0  0  0  0  0  0  0  0  0  0  0
   10.0144   14.7212   24.9641 H    0  0  0  0  0  0  0  0  0  0  0  0
    9.5312   16.1348   24.0805 H    0  0  0  0  0  0  0  0  0  0  0  0
    8.4582   14.2167   20.9814 H    0  0  0  0  0  0  0  0  0  0  0  0
    8.5045   15.8262   21.6466 H    0  0  0  0  0  0  0  0  0  0  0  0
    8.9003   12.8058   25.4148 H    0  0  0  0  0  0  0  0  0  0  0  0
    7.6913   14.0398   25.5333 H    0  0  0  0  0  0  0  0  0  0  0  0
    6.3839    8.6589   25.6776 H    0  0  0  0  0  0  0  0  0  0  0  0
    5.4367   13.5376   25.8514 H    0  0  0  0  0  0  0  0  0  0  0  0
    2.5585   12.5209   24.7244 H    0  0  0  0  0  0  0  0  0  0  0  0
    3.1119   13.9032   25.7067 H    0  0  0  0  0  0  0  0  0  0  0  0
    1.6386   13.0342   26.1604 H    0  0  0  0  0  0  0  0  0  0  0  0
    4.6626    9.0341   28.6320 H    0  0  0  0  0  0  0  0  0  0  0  0
    3.0877    8.3159   28.2388 H    0  0  0  0  0  0  0  0  0  0  0  0
    3.2294   10.0756   28.4108 H    0  0  0  0  0  0  0  0  0  0  0  0
  9 10  1  0  0  0  0
  7  9  1  0  0  0  0
  6  7  1  0  0  0  0
  5  6  1  0  0  0  0
  4  5  1  0  0  0  0
  2  4  1  0  0  0  0
  1  2  2  0  0  0  0
  3  2  1  0  0  0  0
 24  3  1  0  0  0  0
 25  3  1  0  0  0  0
 26  4  1  0  0  0  0
 27  5  1  0  0  0  0
 28  5  1  0  0  0  0
 29  6  1  0  0  0  0
 30  6  1  0  0  0  0
 31  7  1  0  0  0  0
 32  7  1  0  0  0  0
  8  4  1  0  0  0  0
 33  8  1  0  0  0  0
 34  8  1  0  0  0  0
 11 10  2  0  0  0  0
 12 10  1  0  0  0  0
 35 12  1  0  0  0  0
 36 12  1  0  0  0  0
 13 12  1  0  0  0  0
 14 13  1  0  0  0  0
 15 14  1  0  0  0  0
 16 14  2  0  0  0  0
 37 16  1  0  0  0  0
 17 13  2  0  0  0  0
 38 17  1  0  0  0  0
 18 17  1  0  0  0  0
 19 18  1  0  0  0  0
 20 19  1  0  0  0  0
 39 20  1  0  0  0  0
 40 20  1  0  0  0  0
 41 20  1  0  0  0  0
 21 16  1  0  0  0  0
 22 21  1  0  0  0  0
 23 22  1  0  0  0  0
 42 23  1  0  0  0  0
 43 23  1  0  0  0  0
 44 23  1  0  0  0  0
  9  8  1  0  0  0  0
 21 18  2  0  0  0  0
M  END
>  <FittedScore>
-31.43

$$$$
