A71EV2A-x4845a_best-RMSD
  FITTED

 44 45     0  0  0  0  0  0  0999 V2000
    9.9225   16.5566   19.2784 O    0  0  0  0  0  0  0  0  0  0  0  0
   10.4395   15.5175   19.6329 C    0  0  0  0  0  0  0  0  0  0  0  0
   11.0821   14.7365   18.7409 N    0  0  0  0  0  0  0  0  0  0  0  0
   10.3837   15.0039   21.0637 C    0  0  0  0  0  0  0  0  0  0  0  0
   11.4234   15.7584   21.9448 C    0  0  0  0  0  0  0  0  0  0  0  0
   11.3071   15.3119   23.4252 C    0  0  0  0  0  0  0  0  0  0  0  0
    9.8397   15.4179   23.9155 C    0  0  0  0  0  0  0  0  0  0  0  0
    8.9413   15.0830   21.6595 C    0  0  0  0  0  0  0  0  0  0  0  0
    8.9007   14.5941   23.0749 N    0  0  0  0  0  0  0  0  0  0  0  0
    8.2002   13.4727   23.4611 C    0  0  0  0  0  0  0  0  0  0  0  0
    7.4199   12.9224   22.6957 O    0  0  0  0  0  0  0  0  0  0  0  0
    8.5267   12.8118   24.8097 C    0  0  0  0  0  0  0  0  0  0  0  0
    7.4340   11.8498   25.2898 C    0  0  0  0  0  0  0  0  0  0  0  0
    7.4675   10.4397   25.1599 C    0  0  0  0  0  0  0  0  0  0  0  0
    8.9005    9.4920   24.3190 BR   0  0  0  0  0  0  0  0  0  0  0  0
    6.3793    9.6789   25.6118 C    0  0  0  0  0  0  0  0  0  0  0  0
    6.2968   12.4609   25.8500 C    0  0  0  0  0  0  0  0  0  0  0  0
    5.2006   11.6939   26.2653 C    0  0  0  0  0  0  0  0  0  0  0  0
    4.0812   12.3263   26.7794 O    0  0  0  0  0  0  0  0  0  0  0  0
    3.2439   13.1746   25.9577 C    0  0  0  0  0  0  0  0  0  0  0  0
    5.2464   10.2939   26.1632 C    0  0  0  0  0  0  0  0  0  0  0  0
    4.1690    9.5100   26.5312 O    0  0  0  0  0  0  0  0  0  0  0  0
    3.8657    9.2591   27.9241 C    0  0  0  0  0  0  0  0  0  0  0  0
   11.0368   14.9932   17.7613 H    0  0  0  0  0  0  0  0  0  0  0  0
   11.3870   13.7969   18.9938 H    0  0  0  0  0  0  0  0  0  0  0  0
   10.6572   13.9409   21.0758 H    0  0  0  0  0  0  0  0  0  0  0  0
   12.4381   15.5743   21.5777 H    0  0  0  0  0  0  0  0  0  0  0  0
   11.2676   16.8423   21.8830 H    0  0  0  0  0  0  0  0  0  0  0  0
   11.6614   14.2818   23.5379 H    0  0  0  0  0  0  0  0  0  0  0  0
   11.9474   15.9417   24.0496 H    0  0  0  0  0  0  0  0  0  0  0  0
    9.8252   15.1798   24.9746 H    0  0  0  0  0  0  0  0  0  0  0  0
    9.5304   16.4692   23.8825 H    0  0  0  0  0  0  0  0  0  0  0  0
    8.2738   14.5284   20.9977 H    0  0  0  0  0  0  0  0  0  0  0  0
    8.5724   16.1157   21.6300 H    0  0  0  0  0  0  0  0  0  0  0  0
    9.5093   12.3454   24.7438 H    0  0  0  0  0  0  0  0  0  0  0  0
    8.6277   13.5373   25.6180 H    0  0  0  0  0  0  0  0  0  0  0  0
    6.3904    8.5971   25.5194 H    0  0  0  0  0  0  0  0  0  0  0  0
    6.2378   13.5467   25.9264 H    0  0  0  0  0  0  0  0  0  0  0  0
    2.3380   13.4017   26.5268 H    0  0  0  0  0  0  0  0  0  0  0  0
    2.9779   12.6499   25.0379 H    0  0  0  0  0  0  0  0  0  0  0  0
    3.7512   14.1134   25.7075 H    0  0  0  0  0  0  0  0  0  0  0  0
    4.7362    8.8280   28.4272 H    0  0  0  0  0  0  0  0  0  0  0  0
    3.0374    8.5500   27.9901 H    0  0  0  0  0  0  0  0  0  0  0  0
    3.5768   10.1832   28.4285 H    0  0  0  0  0  0  0  0  0  0  0  0
  9 10  1  0  0  0  0
  7  9  1  0  0  0  0
  6  7  1  0  0  0  0
  5  6  1  0  0  0  0
  4  5  1  0  0  0  0
  2  4  1  0  0  0  0
  1  2  2  0  0  0  0
  3  2  1  0  0  0  0
 24  3  1  0  0  0  0
 25  3  1  0  0  0  0
 26  4  1  0  0  0  0
 27  5  1  0  0  0  0
 28  5  1  0  0  0  0
 29  6  1  0  0  0  0
 30  6  1  0  0  0  0
 31  7  1  0  0  0  0
 32  7  1  0  0  0  0
  8  4  1  0  0  0  0
 33  8  1  0  0  0  0
 34  8  1  0  0  0  0
 11 10  2  0  0  0  0
 12 10  1  0  0  0  0
 35 12  1  0  0  0  0
 36 12  1  0  0  0  0
 13 12  1  0  0  0  0
 14 13  1  0  0  0  0
 15 14  1  0  0  0  0
 16 14  2  0  0  0  0
 37 16  1  0  0  0  0
 17 13  2  0  0  0  0
 38 17  1  0  0  0  0
 18 17  1  0  0  0  0
 19 18  1  0  0  0  0
 20 19  1  0  0  0  0
 39 20  1  0  0  0  0
 40 20  1  0  0  0  0
 41 20  1  0  0  0  0
 21 16  1  0  0  0  0
 22 21  1  0  0  0  0
 23 22  1  0  0  0  0
 42 23  1  0  0  0  0
 43 23  1  0  0  0  0
 44 23  1  0  0  0  0
  9  8  1  0  0  0  0
 21 18  2  0  0  0  0
M  END
>  <FittedScore>
-31.37

$$$$
