A71EV2A-x3990a_best-RMSD
  FITTED

 40 41     0  0  0  0  0  0  0999 V2000
   10.9997   17.0242   23.5031 F    0  0  0  0  0  0  0  0  0  0  0  0
   11.7213   16.1492   22.7791 C    0  0  0  0  0  0  0  0  0  0  0  0
   12.4238   16.8793   21.9029 F    0  0  0  0  0  0  0  0  0  0  0  0
   12.6025   15.6104   23.6287 F    0  0  0  0  0  0  0  0  0  0  0  0
   10.8921   15.0405   22.0680 C    0  0  0  0  0  0  0  0  0  0  0  0
    9.7690   15.5800   21.1410 C    0  0  0  0  0  0  0  0  0  0  0  0
   10.1543   15.8291   19.6743 C    0  0  0  0  0  0  0  0  0  0  0  0
    9.8258   16.8351   19.0939 O    0  0  0  0  0  0  0  0  0  0  0  0
   10.7086   14.8366   18.9528 N    0  0  0  0  0  0  0  0  0  0  0  0
    8.5907   14.6065   21.3506 C    0  0  0  0  0  0  0  0  0  0  0  0
   10.1634   14.1203   23.0766 C    0  0  0  0  0  0  0  0  0  0  0  0
    8.7517   13.9771   22.6756 N    0  0  0  0  0  0  0  0  0  0  0  0
    7.7478   13.4017   23.4105 C    0  0  0  0  0  0  0  0  0  0  0  0
    6.6701   13.1347   22.8998 O    0  0  0  0  0  0  0  0  0  0  0  0
    7.9805   13.1638   24.9168 C    0  0  0  0  0  0  0  0  0  0  0  0
    7.2709   11.9226   25.4293 C    0  0  0  0  0  0  0  0  0  0  0  0
    7.6811   10.6352   25.0107 C    0  0  0  0  0  0  0  0  0  0  0  0
    8.7543   10.5378   24.1205 O    0  0  0  0  0  0  0  0  0  0  0  0
    9.3914    9.3258   23.6553 C    0  0  0  0  0  0  0  0  0  0  0  0
    6.2122   12.0688   26.3436 C    0  0  0  0  0  0  0  0  0  0  0  0
    5.5519   10.9456   26.8417 C    0  0  0  0  0  0  0  0  0  0  0  0
    5.9370    9.6724   26.4168 C    0  0  0  0  0  0  0  0  0  0  0  0
    6.9788    9.5155   25.4922 C    0  0  0  0  0  0  0  0  0  0  0  0
   11.5898   14.4164   21.4993 H    0  0  0  0  0  0  0  0  0  0  0  0
    9.4212   16.5393   21.5397 H    0  0  0  0  0  0  0  0  0  0  0  0
   10.8705   13.9241   19.3672 H    0  0  0  0  0  0  0  0  0  0  0  0
   10.7478   14.9407   17.9424 H    0  0  0  0  0  0  0  0  0  0  0  0
    7.6436   15.1500   21.2861 H    0  0  0  0  0  0  0  0  0  0  0  0
    8.5724   13.8199   20.5911 H    0  0  0  0  0  0  0  0  0  0  0  0
   10.2243   14.5400   24.0850 H    0  0  0  0  0  0  0  0  0  0  0  0
   10.6403   13.1343   23.1035 H    0  0  0  0  0  0  0  0  0  0  0  0
    9.0285   13.0190   25.1937 H    0  0  0  0  0  0  0  0  0  0  0  0
    7.6633   14.0569   25.4655 H    0  0  0  0  0  0  0  0  0  0  0  0
    8.6770    8.6466   23.1764 H    0  0  0  0  0  0  0  0  0  0  0  0
    9.8633    8.8236   24.4977 H    0  0  0  0  0  0  0  0  0  0  0  0
   10.1723    9.5874   22.9320 H    0  0  0  0  0  0  0  0  0  0  0  0
    5.8916   13.0552   26.6704 H    0  0  0  0  0  0  0  0  0  0  0  0
    4.7372   11.0668   27.5490 H    0  0  0  0  0  0  0  0  0  0  0  0
    5.4250    8.7972   26.8075 H    0  0  0  0  0  0  0  0  0  0  0  0
    7.2399    8.5100   25.1768 H    0  0  0  0  0  0  0  0  0  0  0  0
 10 12  1  0  0  0  0
  6 10  1  0  0  0  0
  7  6  1  0  0  0  0
  5  6  1  0  0  0  0
  2  5  1  0  0  0  0
  1  2  1  0  0  0  0
  3  2  1  0  0  0  0
  4  2  1  0  0  0  0
 24  5  1  0  0  0  0
 25  6  1  0  0  0  0
  8  7  2  0  0  0  0
  9  7  1  0  0  0  0
 26  9  1  0  0  0  0
 27  9  1  0  0  0  0
 28 10  1  0  0  0  0
 29 10  1  0  0  0  0
 11  5  1  0  0  0  0
 30 11  1  0  0  0  0
 31 11  1  0  0  0  0
 13 12  1  0  0  0  0
 14 13  2  0  0  0  0
 15 13  1  0  0  0  0
 32 15  1  0  0  0  0
 33 15  1  0  0  0  0
 16 15  1  0  0  0  0
 17 16  1  0  0  0  0
 23 17  2  0  0  0  0
 18 17  1  0  0  0  0
 19 18  1  0  0  0  0
 34 19  1  0  0  0  0
 35 19  1  0  0  0  0
 36 19  1  0  0  0  0
 20 16  2  0  0  0  0
 37 20  1  0  0  0  0
 21 20  1  0  0  0  0
 38 21  1  0  0  0  0
 22 21  2  0  0  0  0
 39 22  1  0  0  0  0
 40 23  1  0  0  0  0
 12 11  1  0  0  0  0
 23 22  1  0  0  0  0
M  END
>  <FittedScore>
-34.83

$$$$
