A71EV2A-x3990a_lowest-energy
  FITTED

 40 41     0  0  0  0  0  0  0999 V2000
   12.6402   15.7102   23.5683 F    0  0  0  0  0  0  0  0  0  0  0  0
   11.6636   16.2281   22.8187 C    0  0  0  0  0  0  0  0  0  0  0  0
   10.8632   16.8974   23.6669 F    0  0  0  0  0  0  0  0  0  0  0  0
   12.2248   17.1325   21.9985 F    0  0  0  0  0  0  0  0  0  0  0  0
   10.9317   15.0986   22.0512 C    0  0  0  0  0  0  0  0  0  0  0  0
    9.7848   15.6049   21.1361 C    0  0  0  0  0  0  0  0  0  0  0  0
   10.1679   15.8414   19.6724 C    0  0  0  0  0  0  0  0  0  0  0  0
    9.8353   16.8435   19.0901 O    0  0  0  0  0  0  0  0  0  0  0  0
   10.7010   14.8324   18.9589 N    0  0  0  0  0  0  0  0  0  0  0  0
    8.6262   14.6118   21.3472 C    0  0  0  0  0  0  0  0  0  0  0  0
   10.2560   14.1014   23.0181 C    0  0  0  0  0  0  0  0  0  0  0  0
    8.8451   13.9257   22.6350 N    0  0  0  0  0  0  0  0  0  0  0  0
    7.8805   13.3084   23.3788 C    0  0  0  0  0  0  0  0  0  0  0  0
    6.7851   13.0620   22.8976 O    0  0  0  0  0  0  0  0  0  0  0  0
    8.1742   13.0296   24.8621 C    0  0  0  0  0  0  0  0  0  0  0  0
    7.3919   11.8508   25.4137 C    0  0  0  0  0  0  0  0  0  0  0  0
    7.7261   10.5301   25.0446 C    0  0  0  0  0  0  0  0  0  0  0  0
    8.8203   10.3381   24.1946 O    0  0  0  0  0  0  0  0  0  0  0  0
    9.1768    9.1086   23.5267 C    0  0  0  0  0  0  0  0  0  0  0  0
    6.3196   12.1020   26.2883 C    0  0  0  0  0  0  0  0  0  0  0  0
    5.5744   11.0395   26.8104 C    0  0  0  0  0  0  0  0  0  0  0  0
    5.8879    9.7281   26.4443 C    0  0  0  0  0  0  0  0  0  0  0  0
    6.9428    9.4746   25.5532 C    0  0  0  0  0  0  0  0  0  0  0  0
   11.6751   14.5419   21.4719 H    0  0  0  0  0  0  0  0  0  0  0  0
    9.4215   16.5668   21.5168 H    0  0  0  0  0  0  0  0  0  0  0  0
   10.7907   14.9554   17.9544 H    0  0  0  0  0  0  0  0  0  0  0  0
   10.8541   13.9146   19.3618 H    0  0  0  0  0  0  0  0  0  0  0  0
    7.6708   15.1469   21.3360 H    0  0  0  0  0  0  0  0  0  0  0  0
    8.5882   13.8562   20.5573 H    0  0  0  0  0  0  0  0  0  0  0  0
   10.3134   14.4648   24.0485 H    0  0  0  0  0  0  0  0  0  0  0  0
   10.7717   13.1369   22.9907 H    0  0  0  0  0  0  0  0  0  0  0  0
    9.2257   12.7991   25.0547 H    0  0  0  0  0  0  0  0  0  0  0  0
    7.9696   13.9392   25.4335 H    0  0  0  0  0  0  0  0  0  0  0  0
    9.4695    8.3587   24.2618 H    0  0  0  0  0  0  0  0  0  0  0  0
   10.0256    9.2932   22.8633 H    0  0  0  0  0  0  0  0  0  0  0  0
    8.3393    8.7456   22.9256 H    0  0  0  0  0  0  0  0  0  0  0  0
    6.0560   13.1222   26.5592 H    0  0  0  0  0  0  0  0  0  0  0  0
    4.7461   11.2424   27.4822 H    0  0  0  0  0  0  0  0  0  0  0  0
    5.2978    8.9027   26.8398 H    0  0  0  0  0  0  0  0  0  0  0  0
    7.1463    8.4425   25.2803 H    0  0  0  0  0  0  0  0  0  0  0  0
 10 12  1  0  0  0  0
  6 10  1  0  0  0  0
  7  6  1  0  0  0  0
  5  6  1  0  0  0  0
  2  5  1  0  0  0  0
  1  2  1  0  0  0  0
  3  2  1  0  0  0  0
  4  2  1  0  0  0  0
 24  5  1  0  0  0  0
 25  6  1  0  0  0  0
  8  7  2  0  0  0  0
  9  7  1  0  0  0  0
 26  9  1  0  0  0  0
 27  9  1  0  0  0  0
 28 10  1  0  0  0  0
 29 10  1  0  0  0  0
 11  5  1  0  0  0  0
 30 11  1  0  0  0  0
 31 11  1  0  0  0  0
 13 12  1  0  0  0  0
 14 13  2  0  0  0  0
 15 13  1  0  0  0  0
 32 15  1  0  0  0  0
 33 15  1  0  0  0  0
 16 15  1  0  0  0  0
 17 16  1  0  0  0  0
 23 17  2  0  0  0  0
 18 17  1  0  0  0  0
 19 18  1  0  0  0  0
 34 19  1  0  0  0  0
 35 19  1  0  0  0  0
 36 19  1  0  0  0  0
 20 16  2  0  0  0  0
 37 20  1  0  0  0  0
 21 20  1  0  0  0  0
 38 21  1  0  0  0  0
 22 21  2  0  0  0  0
 39 22  1  0  0  0  0
 40 23  1  0  0  0  0
 12 11  1  0  0  0  0
 23 22  1  0  0  0  0
M  END
>  <FittedScore>
-34.41

$$$$
