A71EV2A-x4918a_lowest-energy
  FITTED

 39 40     0  0  0  0  0  0  0999 V2000
    9.7628   16.6625   19.3606 O    0  0  0  0  0  0  0  0  0  0  0  0
   10.2826   15.6169   19.7082 C    0  0  0  0  0  0  0  0  0  0  0  0
   10.7624   14.7566   18.7892 N    0  0  0  0  0  0  0  0  0  0  0  0
   10.2846   15.1221   21.1530 C    0  0  0  0  0  0  0  0  0  0  0  0
   11.2769   15.9612   22.0128 C    0  0  0  0  0  0  0  0  0  0  0  0
   11.1995   15.5728   23.5123 C    0  0  0  0  0  0  0  0  0  0  0  0
    9.7341   15.5656   24.0173 C    0  0  0  0  0  0  0  0  0  0  0  0
    8.8480   15.0956   21.7673 C    0  0  0  0  0  0  0  0  0  0  0  0
    8.8393   14.6706   23.2060 N    0  0  0  0  0  0  0  0  0  0  0  0
    8.0530   13.6470   23.6933 C    0  0  0  0  0  0  0  0  0  0  0  0
    7.2169   13.1107   22.9848 O    0  0  0  0  0  0  0  0  0  0  0  0
    8.2503   13.1524   25.1400 C    0  0  0  0  0  0  0  0  0  0  0  0
    7.5887   11.8015   25.4781 C    0  0  0  0  0  0  0  0  0  0  0  0
    8.0414   10.5641   24.9409 C    0  0  0  0  0  0  0  0  0  0  0  0
    9.4513   10.5129   23.8396 S    0  0  0  0  0  0  0  0  0  0  0  0
    9.7042    8.7597   23.4011 C    0  0  0  0  0  0  0  0  0  0  0  0
    6.4885   11.7832   26.3585 C    0  0  0  0  0  0  0  0  0  0  0  0
    5.8713   10.5693   26.6808 C    0  0  0  0  0  0  0  0  0  0  0  0
    6.3589    9.3924   26.1039 C    0  0  0  0  0  0  0  0  0  0  0  0
    7.4176    9.3871   25.2485 N    0  0  0  0  0  0  0  0  0  0  0  0
   10.7044   14.9936   17.8062 H    0  0  0  0  0  0  0  0  0  0  0  0
   10.9689   13.7928   19.0551 H    0  0  0  0  0  0  0  0  0  0  0  0
   10.6474   14.0880   21.1750 H    0  0  0  0  0  0  0  0  0  0  0  0
   12.2965   15.7977   21.6535 H    0  0  0  0  0  0  0  0  0  0  0  0
   11.0643   17.0296   21.8984 H    0  0  0  0  0  0  0  0  0  0  0  0
   11.6415   14.5839   23.6648 H    0  0  0  0  0  0  0  0  0  0  0  0
   11.7836   16.2822   24.1017 H    0  0  0  0  0  0  0  0  0  0  0  0
    9.7388   15.3294   25.0789 H    0  0  0  0  0  0  0  0  0  0  0  0
    9.3332   16.5836   23.9721 H    0  0  0  0  0  0  0  0  0  0  0  0
    8.2385   14.4408   21.1351 H    0  0  0  0  0  0  0  0  0  0  0  0
    8.3792   16.0821   21.6887 H    0  0  0  0  0  0  0  0  0  0  0  0
    9.3175   13.0543   25.3659 H    0  0  0  0  0  0  0  0  0  0  0  0
    7.8709   13.9272   25.8149 H    0  0  0  0  0  0  0  0  0  0  0  0
   10.5589    8.6827   22.7278 H    0  0  0  0  0  0  0  0  0  0  0  0
    8.8250    8.3606   22.8875 H    0  0  0  0  0  0  0  0  0  0  0  0
    9.9054    8.1718   24.2936 H    0  0  0  0  0  0  0  0  0  0  0  0
    6.1083   12.7061   26.7912 H    0  0  0  0  0  0  0  0  0  0  0  0
    5.0245   10.5442   27.3603 H    0  0  0  0  0  0  0  0  0  0  0  0
    5.8783    8.4484   26.3476 H    0  0  0  0  0  0  0  0  0  0  0  0
  9 10  1  0  0  0  0
  7  9  1  0  0  0  0
  6  7  1  0  0  0  0
  5  6  1  0  0  0  0
  4  5  1  0  0  0  0
  2  4  1  0  0  0  0
  1  2  2  0  0  0  0
  3  2  1  0  0  0  0
 21  3  1  0  0  0  0
 22  3  1  0  0  0  0
 23  4  1  0  0  0  0
 24  5  1  0  0  0  0
 25  5  1  0  0  0  0
 26  6  1  0  0  0  0
 27  6  1  0  0  0  0
 28  7  1  0  0  0  0
 29  7  1  0  0  0  0
  8  4  1  0  0  0  0
 30  8  1  0  0  0  0
 31  8  1  0  0  0  0
 11 10  2  0  0  0  0
 12 10  1  0  0  0  0
 32 12  1  0  0  0  0
 33 12  1  0  0  0  0
 13 12  1  0  0  0  0
 14 13  1  0  0  0  0
 20 14  2  0  0  0  0
 15 14  1  0  0  0  0
 16 15  1  0  0  0  0
 34 16  1  0  0  0  0
 35 16  1  0  0  0  0
 36 16  1  0  0  0  0
 17 13  2  0  0  0  0
 37 17  1  0  0  0  0
 18 17  1  0  0  0  0
 38 18  1  0  0  0  0
 19 18  2  0  0  0  0
 39 19  1  0  0  0  0
  9  8  1  0  0  0  0
 20 19  1  0  0  0  0
M  END
>  <FittedScore>
-33.98

$$$$
