A71EV2A-x4918a_best-RMSD
  FITTED

 39 40     0  0  0  0  0  0  0999 V2000
    9.7424   16.6566   19.4441 O    0  0  0  0  0  0  0  0  0  0  0  0
   10.3014   15.6255   19.7665 C    0  0  0  0  0  0  0  0  0  0  0  0
   10.7779   14.7871   18.8263 N    0  0  0  0  0  0  0  0  0  0  0  0
   10.3244   15.0917   21.1976 C    0  0  0  0  0  0  0  0  0  0  0  0
   11.3681   15.8722   22.0534 C    0  0  0  0  0  0  0  0  0  0  0  0
   11.2853   15.4698   23.5490 C    0  0  0  0  0  0  0  0  0  0  0  0
    9.8196   15.5138   24.0642 C    0  0  0  0  0  0  0  0  0  0  0  0
    8.8929   15.0928   21.8328 C    0  0  0  0  0  0  0  0  0  0  0  0
    8.8934   14.6420   23.2604 N    0  0  0  0  0  0  0  0  0  0  0  0
    8.1411   13.5870   23.7333 C    0  0  0  0  0  0  0  0  0  0  0  0
    7.2951   13.0579   23.0303 O    0  0  0  0  0  0  0  0  0  0  0  0
    8.4054   13.0653   25.1544 C    0  0  0  0  0  0  0  0  0  0  0  0
    7.7029   11.7471   25.5055 C    0  0  0  0  0  0  0  0  0  0  0  0
    8.0906   10.4986   24.9520 C    0  0  0  0  0  0  0  0  0  0  0  0
    9.5120   10.3800   23.8703 S    0  0  0  0  0  0  0  0  0  0  0  0
    9.6694    8.6228   23.4162 C    0  0  0  0  0  0  0  0  0  0  0  0
    6.6186   11.7745   26.4092 C    0  0  0  0  0  0  0  0  0  0  0  0
    5.9492   10.5879   26.7261 C    0  0  0  0  0  0  0  0  0  0  0  0
    6.3590    9.3991   26.1124 C    0  0  0  0  0  0  0  0  0  0  0  0
    7.4038    9.3540   25.2432 N    0  0  0  0  0  0  0  0  0  0  0  0
   10.7040   15.0414   17.8498 H    0  0  0  0  0  0  0  0  0  0  0  0
   10.9795   13.8163   19.0737 H    0  0  0  0  0  0  0  0  0  0  0  0
   10.6395   14.0394   21.1997 H    0  0  0  0  0  0  0  0  0  0  0  0
   12.3740   15.6531   21.6838 H    0  0  0  0  0  0  0  0  0  0  0  0
   11.2171   16.9522   21.9508 H    0  0  0  0  0  0  0  0  0  0  0  0
   11.6873   14.4611   23.6866 H    0  0  0  0  0  0  0  0  0  0  0  0
   11.9055   16.1458   24.1469 H    0  0  0  0  0  0  0  0  0  0  0  0
    9.8322   15.2810   25.1255 H    0  0  0  0  0  0  0  0  0  0  0  0
    9.4589   16.5493   24.0187 H    0  0  0  0  0  0  0  0  0  0  0  0
    8.2541   14.4710   21.1978 H    0  0  0  0  0  0  0  0  0  0  0  0
    8.4545   16.0952   21.7813 H    0  0  0  0  0  0  0  0  0  0  0  0
    9.4796   12.9322   25.3073 H    0  0  0  0  0  0  0  0  0  0  0  0
    8.0977   13.8394   25.8629 H    0  0  0  0  0  0  0  0  0  0  0  0
    8.7677    8.2934   22.8934 H    0  0  0  0  0  0  0  0  0  0  0  0
    9.8202    8.0250   24.3165 H    0  0  0  0  0  0  0  0  0  0  0  0
   10.5282    8.4825   22.7536 H    0  0  0  0  0  0  0  0  0  0  0  0
    6.2944   12.7049   26.8666 H    0  0  0  0  0  0  0  0  0  0  0  0
    5.1210   10.5879   27.4281 H    0  0  0  0  0  0  0  0  0  0  0  0
    5.8295    8.4755   26.3412 H    0  0  0  0  0  0  0  0  0  0  0  0
  9 10  1  0  0  0  0
  7  9  1  0  0  0  0
  6  7  1  0  0  0  0
  5  6  1  0  0  0  0
  4  5  1  0  0  0  0
  2  4  1  0  0  0  0
  1  2  2  0  0  0  0
  3  2  1  0  0  0  0
 21  3  1  0  0  0  0
 22  3  1  0  0  0  0
 23  4  1  0  0  0  0
 24  5  1  0  0  0  0
 25  5  1  0  0  0  0
 26  6  1  0  0  0  0
 27  6  1  0  0  0  0
 28  7  1  0  0  0  0
 29  7  1  0  0  0  0
  8  4  1  0  0  0  0
 30  8  1  0  0  0  0
 31  8  1  0  0  0  0
 11 10  2  0  0  0  0
 12 10  1  0  0  0  0
 32 12  1  0  0  0  0
 33 12  1  0  0  0  0
 13 12  1  0  0  0  0
 14 13  1  0  0  0  0
 20 14  2  0  0  0  0
 15 14  1  0  0  0  0
 16 15  1  0  0  0  0
 34 16  1  0  0  0  0
 35 16  1  0  0  0  0
 36 16  1  0  0  0  0
 17 13  2  0  0  0  0
 37 17  1  0  0  0  0
 18 17  1  0  0  0  0
 38 18  1  0  0  0  0
 19 18  2  0  0  0  0
 39 19  1  0  0  0  0
  9  8  1  0  0  0  0
 20 19  1  0  0  0  0
M  END
>  <FittedScore>
-33.60

$$$$
