A71EV2A-x6832a_lowest-energy
  FITTED

 54 56     0  0  0  0  0  0  0999 V2000
    9.4936    8.6667   23.2897 C    0  0  0  0  0  0  0  0  0  0  0  0
    9.4913   10.3459   23.9712 S    0  0  0  0  0  0  0  0  0  0  0  0
    8.0167   10.5098   24.9714 C    0  0  0  0  0  0  0  0  0  0  0  0
    7.4140    9.3596   25.3691 N    0  0  0  0  0  0  0  0  0  0  0  0
    6.2867    9.4570   26.1105 C    0  0  0  0  0  0  0  0  0  0  0  0
    5.6776   10.6217   26.4307 N    0  0  0  0  0  0  0  0  0  0  0  0
    6.2290   11.8055   26.0188 C    0  0  0  0  0  0  0  0  0  0  0  0
    5.4773   12.9639   26.2871 N    0  0  0  0  0  0  0  0  0  0  0  0
    5.2742   14.0236   25.2735 C    0  0  0  0  0  0  0  0  0  0  0  0
    3.9071   14.6613   25.5380 C    0  0  0  0  0  0  0  0  0  0  0  0
    3.6040   14.3386   27.0030 C    0  0  0  0  0  0  0  0  0  0  0  0
    4.3515   13.0140   27.2707 C    0  0  0  0  0  0  0  0  0  0  0  0
    4.7486   12.8441   28.7443 C    0  0  0  0  0  0  0  0  0  0  0  0
    5.8735   13.4499   29.1833 N    0  0  0  0  0  0  0  0  0  0  0  0
    4.0964   12.1654   29.5123 O    0  0  0  0  0  0  0  0  0  0  0  0
    7.4907   11.7836   25.3323 C    0  0  0  0  0  0  0  0  0  0  0  0
    8.3127   13.0474   24.9959 C    0  0  0  0  0  0  0  0  0  0  0  0
    8.1923   13.5200   23.5327 C    0  0  0  0  0  0  0  0  0  0  0  0
    7.4342   12.9351   22.7756 O    0  0  0  0  0  0  0  0  0  0  0  0
    8.9590   14.5815   23.0903 N    0  0  0  0  0  0  0  0  0  0  0  0
    9.8196   15.4806   23.9436 C    0  0  0  0  0  0  0  0  0  0  0  0
   11.2629   15.6697   23.4159 C    0  0  0  0  0  0  0  0  0  0  0  0
   11.2852   16.1325   21.9411 C    0  0  0  0  0  0  0  0  0  0  0  0
   10.4188   15.1730   21.0819 C    0  0  0  0  0  0  0  0  0  0  0  0
   10.3901   15.6163   19.6350 C    0  0  0  0  0  0  0  0  0  0  0  0
   10.9375   14.7671   18.7497 N    0  0  0  0  0  0  0  0  0  0  0  0
    9.7718   16.5888   19.2520 O    0  0  0  0  0  0  0  0  0  0  0  0
    8.9715   15.0321   21.6666 C    0  0  0  0  0  0  0  0  0  0  0  0
    9.5622    7.9430   24.1022 H    0  0  0  0  0  0  0  0  0  0  0  0
   10.3590    8.5417   22.6349 H    0  0  0  0  0  0  0  0  0  0  0  0
    8.5814    8.4999   22.7120 H    0  0  0  0  0  0  0  0  0  0  0  0
    5.8291    8.5339   26.4566 H    0  0  0  0  0  0  0  0  0  0  0  0
    5.2913   13.6248   24.2556 H    0  0  0  0  0  0  0  0  0  0  0  0
    6.0308   14.8076   25.3432 H    0  0  0  0  0  0  0  0  0  0  0  0
    3.1476   14.2303   24.8783 H    0  0  0  0  0  0  0  0  0  0  0  0
    3.9403   15.7404   25.3637 H    0  0  0  0  0  0  0  0  0  0  0  0
    2.5292   14.2267   27.1704 H    0  0  0  0  0  0  0  0  0  0  0  0
    3.9613   15.1556   27.6369 H    0  0  0  0  0  0  0  0  0  0  0  0
    3.6240   12.2243   27.0448 H    0  0  0  0  0  0  0  0  0  0  0  0
    6.4406   14.0159   28.5573 H    0  0  0  0  0  0  0  0  0  0  0  0
    6.0901   13.4309   30.1727 H    0  0  0  0  0  0  0  0  0  0  0  0
    9.3597   12.8589   25.2425 H    0  0  0  0  0  0  0  0  0  0  0  0
    8.0527   13.8524   25.6807 H    0  0  0  0  0  0  0  0  0  0  0  0
    9.9182   15.1285   24.9640 H    0  0  0  0  0  0  0  0  0  0  0  0
    9.3263   16.4548   24.0285 H    0  0  0  0  0  0  0  0  0  0  0  0
   11.8198   14.7332   23.5080 H    0  0  0  0  0  0  0  0  0  0  0  0
   11.7861   16.4059   24.0308 H    0  0  0  0  0  0  0  0  0  0  0  0
   12.3134   16.1431   21.5689 H    0  0  0  0  0  0  0  0  0  0  0  0
   10.9103   17.1558   21.8626 H    0  0  0  0  0  0  0  0  0  0  0  0
   10.8852   14.1854   21.1461 H    0  0  0  0  0  0  0  0  0  0  0  0
   10.8965   14.9895   17.7638 H    0  0  0  0  0  0  0  0  0  0  0  0
   11.2308   13.8376   19.0538 H    0  0  0  0  0  0  0  0  0  0  0  0
    8.4207   14.3565   21.0044 H    0  0  0  0  0  0  0  0  0  0  0  0
    8.4057   15.9679   21.5971 H    0  0  0  0  0  0  0  0  0  0  0  0
 16 17  1  0  0  0  0
  3 16  1  0  0  0  0
  2  3  1  0  0  0  0
  1  2  1  0  0  0  0
 29  1  1  0  0  0  0
 30  1  1  0  0  0  0
 31  1  1  0  0  0  0
  4  3  2  0  0  0  0
  5  4  1  0  0  0  0
  6  5  2  0  0  0  0
 32  5  1  0  0  0  0
  7  6  1  0  0  0  0
  8  7  1  0  0  0  0
  9  8  1  0  0  0  0
 12  8  1  0  0  0  0
 10  9  1  0  0  0  0
 33  9  1  0  0  0  0
 34  9  1  0  0  0  0
 11 10  1  0  0  0  0
 35 10  1  0  0  0  0
 36 10  1  0  0  0  0
 37 11  1  0  0  0  0
 38 11  1  0  0  0  0
 13 12  1  0  0  0  0
 39 12  1  0  0  0  0
 14 13  1  0  0  0  0
 15 13  2  0  0  0  0
 40 14  1  0  0  0  0
 41 14  1  0  0  0  0
 18 17  1  0  0  0  0
 42 17  1  0  0  0  0
 43 17  1  0  0  0  0
 19 18  2  0  0  0  0
 20 18  1  0  0  0  0
 21 20  1  0  0  0  0
 28 20  1  0  0  0  0
 22 21  1  0  0  0  0
 44 21  1  0  0  0  0
 45 21  1  0  0  0  0
 23 22  1  0  0  0  0
 46 22  1  0  0  0  0
 47 22  1  0  0  0  0
 24 23  1  0  0  0  0
 48 23  1  0  0  0  0
 49 23  1  0  0  0  0
 25 24  1  0  0  0  0
 50 24  1  0  0  0  0
 26 25  1  0  0  0  0
 27 25  2  0  0  0  0
 51 26  1  0  0  0  0
 52 26  1  0  0  0  0
 53 28  1  0  0  0  0
 54 28  1  0  0  0  0
  7 16  2  0  0  0  0
 11 12  1  0  0  0  0
 24 28  1  0  0  0  0
M  END
>  <FittedScore>
-33.83

$$$$
