A71EV2A-x4449b_best-RMSD
  FITTED

 47 48     0  0  0  0  0  0  0999 V2000
    9.9454   16.7096   19.2852 O    0  0  0  0  0  0  0  0  0  0  0  0
   10.4732   15.6574   19.6001 C    0  0  0  0  0  0  0  0  0  0  0  0
   10.7895   14.7474   18.6560 N    0  0  0  0  0  0  0  0  0  0  0  0
   10.6469   15.1781   21.0424 C    0  0  0  0  0  0  0  0  0  0  0  0
   11.5997   16.1011   21.8470 C    0  0  0  0  0  0  0  0  0  0  0  0
   11.7968   15.5144   23.2648 C    0  0  0  0  0  0  0  0  0  0  0  0
   10.4547   15.1940   23.9761 C    0  0  0  0  0  0  0  0  0  0  0  0
    9.2856   15.0092   21.7906 C    0  0  0  0  0  0  0  0  0  0  0  0
    9.4109   14.4401   23.1800 N    0  0  0  0  0  0  0  0  0  0  0  0
    8.5054   13.5072   23.6918 C    0  0  0  0  0  0  0  0  0  0  0  0
    7.5909   13.0827   22.9948 O    0  0  0  0  0  0  0  0  0  0  0  0
    8.5499   13.1113   25.1956 C    0  0  0  0  0  0  0  0  0  0  0  0
    8.1669   14.3033   26.0020 N    0  0  0  0  0  0  0  0  0  0  0  0
    8.7768   14.8391   27.0882 C    0  0  0  0  0  0  0  0  0  0  0  0
    9.8717   14.4947   27.4748 O    0  0  0  0  0  0  0  0  0  0  0  0
    7.9985   15.9291   27.8074 C    0  0  0  0  0  0  0  0  0  0  0  0
    7.6884   11.8550   25.5495 C    0  0  0  0  0  0  0  0  0  0  0  0
    8.0496   10.5642   25.0613 C    0  0  0  0  0  0  0  0  0  0  0  0
    9.1784   10.4176   24.2489 O    0  0  0  0  0  0  0  0  0  0  0  0
    9.7108    9.1800   23.7063 C    0  0  0  0  0  0  0  0  0  0  0  0
    6.5185   11.9540   26.3531 C    0  0  0  0  0  0  0  0  0  0  0  0
    5.7539   10.8296   26.6798 C    0  0  0  0  0  0  0  0  0  0  0  0
    6.1199    9.5757   26.1935 C    0  0  0  0  0  0  0  0  0  0  0  0
    7.2513    9.4447   25.3883 C    0  0  0  0  0  0  0  0  0  0  0  0
   11.0336   13.7909   18.9116 H    0  0  0  0  0  0  0  0  0  0  0  0
   10.6648   14.9701   17.6791 H    0  0  0  0  0  0  0  0  0  0  0  0
   11.1140   14.1809   21.0264 H    0  0  0  0  0  0  0  0  0  0  0  0
   12.5680   16.1781   21.3470 H    0  0  0  0  0  0  0  0  0  0  0  0
   11.1887   17.1140   21.9141 H    0  0  0  0  0  0  0  0  0  0  0  0
   12.3941   14.6008   23.2051 H    0  0  0  0  0  0  0  0  0  0  0  0
   12.3690   16.2153   23.8767 H    0  0  0  0  0  0  0  0  0  0  0  0
   10.7554   14.6422   24.8603 H    0  0  0  0  0  0  0  0  0  0  0  0
   10.0079   16.1263   24.3315 H    0  0  0  0  0  0  0  0  0  0  0  0
    8.6464   14.3951   21.1524 H    0  0  0  0  0  0  0  0  0  0  0  0
    8.7862   15.9796   21.8614 H    0  0  0  0  0  0  0  0  0  0  0  0
    9.5707   12.8175   25.4592 H    0  0  0  0  0  0  0  0  0  0  0  0
    7.2743   14.7062   25.7565 H    0  0  0  0  0  0  0  0  0  0  0  0
    7.0443   16.1527   27.3192 H    0  0  0  0  0  0  0  0  0  0  0  0
    8.5861   16.8522   27.8434 H    0  0  0  0  0  0  0  0  0  0  0  0
    7.7831   15.6173   28.8336 H    0  0  0  0  0  0  0  0  0  0  0  0
    8.9818    8.7042   23.0445 H    0  0  0  0  0  0  0  0  0  0  0  0
    9.9718    8.4996   24.5198 H    0  0  0  0  0  0  0  0  0  0  0  0
   10.6158    9.4052   23.1343 H    0  0  0  0  0  0  0  0  0  0  0  0
    6.1678   12.9024   26.7452 H    0  0  0  0  0  0  0  0  0  0  0  0
    4.8706   10.9341   27.3036 H    0  0  0  0  0  0  0  0  0  0  0  0
    5.5193    8.7004   26.4334 H    0  0  0  0  0  0  0  0  0  0  0  0
    7.4926    8.4495   25.0245 H    0  0  0  0  0  0  0  0  0  0  0  0
  9 10  1  0  0  0  0
  7  9  1  0  0  0  0
  6  7  1  0  0  0  0
  5  6  1  0  0  0  0
  4  5  1  0  0  0  0
  2  4  1  0  0  0  0
  1  2  2  0  0  0  0
  3  2  1  0  0  0  0
 25  3  1  0  0  0  0
 26  3  1  0  0  0  0
 27  4  1  0  0  0  0
 28  5  1  0  0  0  0
 29  5  1  0  0  0  0
 30  6  1  0  0  0  0
 31  6  1  0  0  0  0
 32  7  1  0  0  0  0
 33  7  1  0  0  0  0
  8  4  1  0  0  0  0
 34  8  1  0  0  0  0
 35  8  1  0  0  0  0
 11 10  2  0  0  0  0
 12 10  1  0  0  0  0
 13 12  1  0  0  0  0
 36 12  1  0  0  0  0
 37 13  1  0  0  0  0
 14 13  1  0  0  0  0
 15 14  2  0  0  0  0
 16 14  1  0  0  0  0
 38 16  1  0  0  0  0
 39 16  1  0  0  0  0
 40 16  1  0  0  0  0
 17 12  1  0  0  0  0
 18 17  1  0  0  0  0
 24 18  2  0  0  0  0
 19 18  1  0  0  0  0
 20 19  1  0  0  0  0
 41 20  1  0  0  0  0
 42 20  1  0  0  0  0
 43 20  1  0  0  0  0
 21 17  2  0  0  0  0
 44 21  1  0  0  0  0
 22 21  1  0  0  0  0
 45 22  1  0  0  0  0
 23 22  2  0  0  0  0
 46 23  1  0  0  0  0
 47 24  1  0  0  0  0
  9  8  1  0  0  0  0
 24 23  1  0  0  0  0
M  END
>  <FittedScore>
-34.63

$$$$
