A71EV2A-x5079a_lowest-energy
  FITTED

 35 36     0  0  0  0  0  0  0999 V2000
    9.3378    9.9542   23.8362 CL   0  0  0  0  0  0  0  0  0  0  0  0
    8.0094   10.3740   24.8756 C    0  0  0  0  0  0  0  0  0  0  0  0
    7.1929    9.3469   25.2382 N    0  0  0  0  0  0  0  0  0  0  0  0
    6.1487    9.5832   26.0813 C    0  0  0  0  0  0  0  0  0  0  0  0
    5.8879   10.8522   26.6075 C    0  0  0  0  0  0  0  0  0  0  0  0
    6.7168   11.9158   26.2352 C    0  0  0  0  0  0  0  0  0  0  0  0
    7.7949   11.6908   25.3550 C    0  0  0  0  0  0  0  0  0  0  0  0
    8.6782   12.8749   24.9514 C    0  0  0  0  0  0  0  0  0  0  0  0
    8.3566   13.4799   23.5757 C    0  0  0  0  0  0  0  0  0  0  0  0
    7.5104   12.9550   22.8644 O    0  0  0  0  0  0  0  0  0  0  0  0
    9.0879   14.5734   23.1434 N    0  0  0  0  0  0  0  0  0  0  0  0
   10.0312   15.4166   23.9665 C    0  0  0  0  0  0  0  0  0  0  0  0
   11.4394   15.5828   23.3299 C    0  0  0  0  0  0  0  0  0  0  0  0
   11.3633   16.0784   21.8625 C    0  0  0  0  0  0  0  0  0  0  0  0
    8.9730   15.1367   21.7546 C    0  0  0  0  0  0  0  0  0  0  0  0
   10.3686   15.1950   21.0615 C    0  0  0  0  0  0  0  0  0  0  0  0
   10.2847   15.6468   19.6126 C    0  0  0  0  0  0  0  0  0  0  0  0
    9.7366   16.6721   19.2497 O    0  0  0  0  0  0  0  0  0  0  0  0
   10.7060   14.7157   18.7335 N    0  0  0  0  0  0  0  0  0  0  0  0
    5.4960    8.7544   26.3484 H    0  0  0  0  0  0  0  0  0  0  0  0
    5.0572   11.0075   27.2895 H    0  0  0  0  0  0  0  0  0  0  0  0
    6.5181   12.9099   26.6304 H    0  0  0  0  0  0  0  0  0  0  0  0
    8.5720   13.6440   25.7193 H    0  0  0  0  0  0  0  0  0  0  0  0
    9.7274   12.5673   24.9847 H    0  0  0  0  0  0  0  0  0  0  0  0
    9.5841   16.4071   24.1094 H    0  0  0  0  0  0  0  0  0  0  0  0
   10.1898   15.0376   24.9733 H    0  0  0  0  0  0  0  0  0  0  0  0
   12.0188   16.2941   23.9228 H    0  0  0  0  0  0  0  0  0  0  0  0
   11.9763   14.6291   23.3709 H    0  0  0  0  0  0  0  0  0  0  0  0
   11.0488   17.1301   21.8360 H    0  0  0  0  0  0  0  0  0  0  0  0
   12.3586   16.0354   21.4048 H    0  0  0  0  0  0  0  0  0  0  0  0
    8.5318   16.1381   21.7995 H    0  0  0  0  0  0  0  0  0  0  0  0
    8.3044   14.5541   21.1145 H    0  0  0  0  0  0  0  0  0  0  0  0
   10.7619   14.1705   21.0863 H    0  0  0  0  0  0  0  0  0  0  0  0
   10.9493   13.7709   19.0318 H    0  0  0  0  0  0  0  0  0  0  0  0
   10.7320   14.9421   17.7519 H    0  0  0  0  0  0  0  0  0  0  0  0
  8  9  1  0  0  0  0
  7  8  1  0  0  0  0
  6  7  2  0  0  0  0
  5  6  1  0  0  0  0
  4  5  2  0  0  0  0
  3  4  1  0  0  0  0
  2  3  2  0  0  0  0
  1  2  1  0  0  0  0
 20  4  1  0  0  0  0
 21  5  1  0  0  0  0
 22  6  1  0  0  0  0
 23  8  1  0  0  0  0
 24  8  1  0  0  0  0
 10  9  2  0  0  0  0
 11  9  1  0  0  0  0
 12 11  1  0  0  0  0
 25 12  1  0  0  0  0
 26 12  1  0  0  0  0
 13 12  1  0  0  0  0
 27 13  1  0  0  0  0
 28 13  1  0  0  0  0
 14 13  1  0  0  0  0
 29 14  1  0  0  0  0
 30 14  1  0  0  0  0
 15 11  1  0  0  0  0
 31 15  1  0  0  0  0
 32 15  1  0  0  0  0
 16 14  1  0  0  0  0
 17 16  1  0  0  0  0
 33 16  1  0  0  0  0
 18 17  2  0  0  0  0
 19 17  1  0  0  0  0
 34 19  1  0  0  0  0
 35 19  1  0  0  0  0
  7  2  1  0  0  0  0
 16 15  1  0  0  0  0
M  END
>  <FittedScore>
-32.81

$$$$
