A71EV2A-x5079a_best-RMSD
  FITTED

 35 36     0  0  0  0  0  0  0999 V2000
    9.3129   10.1034   23.9224 CL   0  0  0  0  0  0  0  0  0  0  0  0
    7.9521   10.4459   24.9458 C    0  0  0  0  0  0  0  0  0  0  0  0
    7.1567    9.3850   25.2570 N    0  0  0  0  0  0  0  0  0  0  0  0
    6.0930    9.5732   26.0896 C    0  0  0  0  0  0  0  0  0  0  0  0
    5.7776   10.8229   26.6359 C    0  0  0  0  0  0  0  0  0  0  0  0
    6.5725   11.9238   26.2977 C    0  0  0  0  0  0  0  0  0  0  0  0
    7.6788   11.7507   25.4365 C    0  0  0  0  0  0  0  0  0  0  0  0
    8.5236   12.9725   25.0636 C    0  0  0  0  0  0  0  0  0  0  0  0
    8.2839   13.5276   23.6475 C    0  0  0  0  0  0  0  0  0  0  0  0
    7.4795   12.9870   22.9064 O    0  0  0  0  0  0  0  0  0  0  0  0
    9.0081   14.6293   23.2256 N    0  0  0  0  0  0  0  0  0  0  0  0
    9.9967   15.4239   24.0347 C    0  0  0  0  0  0  0  0  0  0  0  0
   11.4213   15.4364   23.4112 C    0  0  0  0  0  0  0  0  0  0  0  0
   11.4009   15.9163   21.9334 C    0  0  0  0  0  0  0  0  0  0  0  0
    8.9251   15.1904   21.8340 C    0  0  0  0  0  0  0  0  0  0  0  0
   10.3126   15.1530   21.1235 C    0  0  0  0  0  0  0  0  0  0  0  0
   10.2641   15.6491   19.6762 C    0  0  0  0  0  0  0  0  0  0  0  0
    9.7969   16.7197   19.3319 O    0  0  0  0  0  0  0  0  0  0  0  0
   10.7249   14.7676   18.7662 N    0  0  0  0  0  0  0  0  0  0  0  0
    5.4662    8.7184   26.3396 H    0  0  0  0  0  0  0  0  0  0  0  0
    4.9258   10.9375   27.3022 H    0  0  0  0  0  0  0  0  0  0  0  0
    6.3258   12.9023   26.7022 H    0  0  0  0  0  0  0  0  0  0  0  0
    8.3320   13.7609   25.7974 H    0  0  0  0  0  0  0  0  0  0  0  0
    9.5785   12.7133   25.1869 H    0  0  0  0  0  0  0  0  0  0  0  0
    9.6326   16.4532   24.1269 H    0  0  0  0  0  0  0  0  0  0  0  0
   10.1003   15.0882   25.0648 H    0  0  0  0  0  0  0  0  0  0  0  0
   12.0637   16.0913   24.0002 H    0  0  0  0  0  0  0  0  0  0  0  0
   11.8571   14.4359   23.4626 H    0  0  0  0  0  0  0  0  0  0  0  0
   11.2242   16.9981   21.8947 H    0  0  0  0  0  0  0  0  0  0  0  0
   12.3849   15.7389   21.4860 H    0  0  0  0  0  0  0  0  0  0  0  0
    8.5567   16.2214   21.8776 H    0  0  0  0  0  0  0  0  0  0  0  0
    8.2042   14.6590   21.2056 H    0  0  0  0  0  0  0  0  0  0  0  0
   10.6083   14.0969   21.1386 H    0  0  0  0  0  0  0  0  0  0  0  0
   10.9558   13.8152   19.0532 H    0  0  0  0  0  0  0  0  0  0  0  0
   10.7126   14.9999   17.7792 H    0  0  0  0  0  0  0  0  0  0  0  0
  8  9  1  0  0  0  0
  7  8  1  0  0  0  0
  6  7  2  0  0  0  0
  5  6  1  0  0  0  0
  4  5  2  0  0  0  0
  3  4  1  0  0  0  0
  2  3  2  0  0  0  0
  1  2  1  0  0  0  0
 20  4  1  0  0  0  0
 21  5  1  0  0  0  0
 22  6  1  0  0  0  0
 23  8  1  0  0  0  0
 24  8  1  0  0  0  0
 10  9  2  0  0  0  0
 11  9  1  0  0  0  0
 12 11  1  0  0  0  0
 25 12  1  0  0  0  0
 26 12  1  0  0  0  0
 13 12  1  0  0  0  0
 27 13  1  0  0  0  0
 28 13  1  0  0  0  0
 14 13  1  0  0  0  0
 29 14  1  0  0  0  0
 30 14  1  0  0  0  0
 15 11  1  0  0  0  0
 31 15  1  0  0  0  0
 32 15  1  0  0  0  0
 16 14  1  0  0  0  0
 17 16  1  0  0  0  0
 33 16  1  0  0  0  0
 18 17  2  0  0  0  0
 19 17  1  0  0  0  0
 34 19  1  0  0  0  0
 35 19  1  0  0  0  0
  7  2  1  0  0  0  0
 16 15  1  0  0  0  0
M  END
>  <FittedScore>
-32.59

$$$$
