A71EV2A-x5635a_best-RMSD
  FITTED

 35 36     0  0  0  0  0  0  0999 V2000
   10.7558   14.7143   18.8714 N    0  0  0  0  0  0  0  0  0  0  0  0
   10.4756   15.6117   19.8368 C    0  0  0  0  0  0  0  0  0  0  0  0
    9.9336   16.6593   19.5384 O    0  0  0  0  0  0  0  0  0  0  0  0
   10.5938   15.0845   21.2713 C    0  0  0  0  0  0  0  0  0  0  0  0
   11.5226   15.9478   22.1639 C    0  0  0  0  0  0  0  0  0  0  0  0
   11.6450   15.3078   23.5803 C    0  0  0  0  0  0  0  0  0  0  0  0
   10.3353   14.8210   24.2061 C    0  0  0  0  0  0  0  0  0  0  0  0
   10.3080   14.5609   25.3969 O    0  0  0  0  0  0  0  0  0  0  0  0
    9.2512   14.5963   23.3903 N    0  0  0  0  0  0  0  0  0  0  0  0
    7.9552   14.0774   23.9076 C    0  0  0  0  0  0  0  0  0  0  0  0
    7.9111   12.5644   24.2580 C    0  0  0  0  0  0  0  0  0  0  0  0
    8.7898   11.6501   23.6182 C    0  0  0  0  0  0  0  0  0  0  0  0
    8.6697   10.2734   23.8519 C    0  0  0  0  0  0  0  0  0  0  0  0
    9.4768    9.3794   23.2311 F    0  0  0  0  0  0  0  0  0  0  0  0
    7.6874    9.8273   24.7440 C    0  0  0  0  0  0  0  0  0  0  0  0
    6.8571   10.6806   25.3999 N    0  0  0  0  0  0  0  0  0  0  0  0
    6.9389   12.0307   25.1647 C    0  0  0  0  0  0  0  0  0  0  0  0
    5.9337   12.9206   25.9401 C    0  0  0  0  0  0  0  0  0  0  0  0
    5.2340   13.7389   25.1307 F    0  0  0  0  0  0  0  0  0  0  0  0
    4.9886   12.2583   26.6306 F    0  0  0  0  0  0  0  0  0  0  0  0
    6.5806   13.6776   26.8457 F    0  0  0  0  0  0  0  0  0  0  0  0
    9.2030   14.9440   21.9393 C    0  0  0  0  0  0  0  0  0  0  0  0
   10.6961   14.9827   17.8946 H    0  0  0  0  0  0  0  0  0  0  0  0
   10.9520   13.7370   19.1071 H    0  0  0  0  0  0  0  0  0  0  0  0
   11.0227   14.0737   21.2486 H    0  0  0  0  0  0  0  0  0  0  0  0
   11.1332   16.9664   22.2502 H    0  0  0  0  0  0  0  0  0  0  0  0
   12.5157   16.0269   21.7120 H    0  0  0  0  0  0  0  0  0  0  0  0
   12.1013   16.0386   24.2567 H    0  0  0  0  0  0  0  0  0  0  0  0
   12.3259   14.4519   23.5351 H    0  0  0  0  0  0  0  0  0  0  0  0
    7.1326   14.2857   23.2171 H    0  0  0  0  0  0  0  0  0  0  0  0
    7.7249   14.6938   24.7779 H    0  0  0  0  0  0  0  0  0  0  0  0
    9.5548   11.9863   22.9249 H    0  0  0  0  0  0  0  0  0  0  0  0
    7.5846    8.7614   24.9308 H    0  0  0  0  0  0  0  0  0  0  0  0
    8.6590   15.8887   21.8345 H    0  0  0  0  0  0  0  0  0  0  0  0
    8.6420   14.1860   21.3834 H    0  0  0  0  0  0  0  0  0  0  0  0
  7  9  1  0  0  0  0
  6  7  1  0  0  0  0
  5  6  1  0  0  0  0
  4  5  1  0  0  0  0
  2  4  1  0  0  0  0
  1  2  1  0  0  0  0
 23  1  1  0  0  0  0
 24  1  1  0  0  0  0
  3  2  2  0  0  0  0
 25  4  1  0  0  0  0
 26  5  1  0  0  0  0
 27  5  1  0  0  0  0
 28  6  1  0  0  0  0
 29  6  1  0  0  0  0
  8  7  2  0  0  0  0
 10  9  1  0  0  0  0
 22  9  1  0  0  0  0
 11 10  1  0  0  0  0
 30 10  1  0  0  0  0
 31 10  1  0  0  0  0
 12 11  2  0  0  0  0
 13 12  1  0  0  0  0
 32 12  1  0  0  0  0
 14 13  1  0  0  0  0
 15 13  2  0  0  0  0
 16 15  1  0  0  0  0
 33 15  1  0  0  0  0
 17 16  2  0  0  0  0
 18 17  1  0  0  0  0
 19 18  1  0  0  0  0
 20 18  1  0  0  0  0
 21 18  1  0  0  0  0
 34 22  1  0  0  0  0
 35 22  1  0  0  0  0
 17 11  1  0  0  0  0
 22  4  1  0  0  0  0
M  END
>  <FittedScore>
-33.54

$$$$
