A71EV2A-x5635a_lowest-energy
  FITTED

 35 36     0  0  0  0  0  0  0999 V2000
   10.6551   14.6883   18.8632 N    0  0  0  0  0  0  0  0  0  0  0  0
   10.3313   15.5673   19.8301 C    0  0  0  0  0  0  0  0  0  0  0  0
    9.7755   16.6108   19.5386 O    0  0  0  0  0  0  0  0  0  0  0  0
   10.5212   15.0714   21.2689 C    0  0  0  0  0  0  0  0  0  0  0  0
   11.4499   15.9935   22.0968 C    0  0  0  0  0  0  0  0  0  0  0  0
   11.6462   15.4032   23.5200 C    0  0  0  0  0  0  0  0  0  0  0  0
   10.3631   14.9789   24.2255 C    0  0  0  0  0  0  0  0  0  0  0  0
   10.3499   14.9348   25.4428 O    0  0  0  0  0  0  0  0  0  0  0  0
    9.2735   14.6291   23.4628 N    0  0  0  0  0  0  0  0  0  0  0  0
    8.0224   14.0934   24.0576 C    0  0  0  0  0  0  0  0  0  0  0  0
    7.9857   12.5742   24.3361 C    0  0  0  0  0  0  0  0  0  0  0  0
    8.8681   11.6834   23.6811 C    0  0  0  0  0  0  0  0  0  0  0  0
    8.7257   10.3011   23.8634 C    0  0  0  0  0  0  0  0  0  0  0  0
    9.5445    9.4244   23.2531 F    0  0  0  0  0  0  0  0  0  0  0  0
    7.7124    9.8223   24.6964 C    0  0  0  0  0  0  0  0  0  0  0  0
    6.8744   10.6560   25.3594 N    0  0  0  0  0  0  0  0  0  0  0  0
    6.9877   12.0112   25.1901 C    0  0  0  0  0  0  0  0  0  0  0  0
    5.9813   12.8829   25.9824 C    0  0  0  0  0  0  0  0  0  0  0  0
    5.2947   13.7249   25.1867 F    0  0  0  0  0  0  0  0  0  0  0  0
    5.0158   12.2033   26.6146 F    0  0  0  0  0  0  0  0  0  0  0  0
    6.6163   13.6064   26.9290 F    0  0  0  0  0  0  0  0  0  0  0  0
    9.1596   14.8800   21.9981 C    0  0  0  0  0  0  0  0  0  0  0  0
   10.6244   14.9728   17.8926 H    0  0  0  0  0  0  0  0  0  0  0  0
   10.9080   13.7264   19.0905 H    0  0  0  0  0  0  0  0  0  0  0  0
   11.0009   14.0827   21.2496 H    0  0  0  0  0  0  0  0  0  0  0  0
   11.0353   16.9976   22.1677 H    0  0  0  0  0  0  0  0  0  0  0  0
   12.4201   16.1010   21.6051 H    0  0  0  0  0  0  0  0  0  0  0  0
   12.1490   16.1462   24.1458 H    0  0  0  0  0  0  0  0  0  0  0  0
   12.3082   14.5300   23.4768 H    0  0  0  0  0  0  0  0  0  0  0  0
    7.1499   14.3483   23.4510 H    0  0  0  0  0  0  0  0  0  0  0  0
    7.8581   14.6642   24.9726 H    0  0  0  0  0  0  0  0  0  0  0  0
    9.6484   12.0430   23.0193 H    0  0  0  0  0  0  0  0  0  0  0  0
    7.6063    8.7508   24.8351 H    0  0  0  0  0  0  0  0  0  0  0  0
    8.5391   15.7724   21.8670 H    0  0  0  0  0  0  0  0  0  0  0  0
    8.6186   14.0627   21.5067 H    0  0  0  0  0  0  0  0  0  0  0  0
  7  9  1  0  0  0  0
  6  7  1  0  0  0  0
  5  6  1  0  0  0  0
  4  5  1  0  0  0  0
  2  4  1  0  0  0  0
  1  2  1  0  0  0  0
 23  1  1  0  0  0  0
 24  1  1  0  0  0  0
  3  2  2  0  0  0  0
 25  4  1  0  0  0  0
 26  5  1  0  0  0  0
 27  5  1  0  0  0  0
 28  6  1  0  0  0  0
 29  6  1  0  0  0  0
  8  7  2  0  0  0  0
 10  9  1  0  0  0  0
 22  9  1  0  0  0  0
 11 10  1  0  0  0  0
 30 10  1  0  0  0  0
 31 10  1  0  0  0  0
 12 11  2  0  0  0  0
 13 12  1  0  0  0  0
 32 12  1  0  0  0  0
 14 13  1  0  0  0  0
 15 13  2  0  0  0  0
 16 15  1  0  0  0  0
 33 15  1  0  0  0  0
 17 16  2  0  0  0  0
 18 17  1  0  0  0  0
 19 18  1  0  0  0  0
 20 18  1  0  0  0  0
 21 18  1  0  0  0  0
 34 22  1  0  0  0  0
 35 22  1  0  0  0  0
 17 11  1  0  0  0  0
 22  4  1  0  0  0  0
M  END
>  <FittedScore>
-34.53

$$$$
