A71EV2A-x7433a_best-RMSD
  FITTED

 63 66     0  0  0  0  0  0  0999 V2000
    9.5529    9.1812   23.3161 C    0  0  0  0  0  0  0  0  0  0  0  0
    9.4187   10.8490   24.0326 S    0  0  0  0  0  0  0  0  0  0  0  0
    7.9123   10.8610   25.0178 C    0  0  0  0  0  0  0  0  0  0  0  0
    7.3845    9.6315   25.2687 N    0  0  0  0  0  0  0  0  0  0  0  0
    6.2566    9.5547   25.9950 C    0  0  0  0  0  0  0  0  0  0  0  0
    5.6418   10.6242   26.5322 N    0  0  0  0  0  0  0  0  0  0  0  0
    6.1360   11.8935   26.3747 C    0  0  0  0  0  0  0  0  0  0  0  0
    5.4317   12.8839   27.1168 N    0  0  0  0  0  0  0  0  0  0  0  0
    6.0712   14.0807   27.7086 C    0  0  0  0  0  0  0  0  0  0  0  0
    5.3140   14.4819   28.9851 C    0  0  0  0  0  0  0  0  0  0  0  0
    3.9663   13.7675   28.9069 C    0  0  0  0  0  0  0  0  0  0  0  0
    4.1920   12.5930   27.9204 C    0  0  0  0  0  0  0  0  0  0  0  0
    2.9136   12.2744   27.0686 C    0  0  0  0  0  0  0  0  0  0  0  0
    2.0006   11.2417   27.7455 C    0  0  0  0  0  0  0  0  0  0  0  0
    2.2897    9.8670   27.6305 C    0  0  0  0  0  0  0  0  0  0  0  0
    1.5196    8.9078   28.3058 C    0  0  0  0  0  0  0  0  0  0  0  0
    0.4438    9.3135   29.1055 C    0  0  0  0  0  0  0  0  0  0  0  0
    0.1439   10.6785   29.2359 C    0  0  0  0  0  0  0  0  0  0  0  0
    0.9242   11.6389   28.5636 C    0  0  0  0  0  0  0  0  0  0  0  0
    7.2934   12.0586   25.5153 C    0  0  0  0  0  0  0  0  0  0  0  0
    7.9634   13.4036   25.1302 C    0  0  0  0  0  0  0  0  0  0  0  0
    7.9876   13.7770   23.6341 C    0  0  0  0  0  0  0  0  0  0  0  0
    7.2284   13.2039   22.8666 O    0  0  0  0  0  0  0  0  0  0  0  0
    8.8533   14.7573   23.1894 N    0  0  0  0  0  0  0  0  0  0  0  0
    9.9553   15.4142   23.9799 C    0  0  0  0  0  0  0  0  0  0  0  0
   11.3515   15.0174   23.4357 C    0  0  0  0  0  0  0  0  0  0  0  0
   11.4981   15.4439   21.9503 C    0  0  0  0  0  0  0  0  0  0  0  0
   10.2892   14.9520   21.0951 C    0  0  0  0  0  0  0  0  0  0  0  0
   10.4100   15.4957   19.6712 C    0  0  0  0  0  0  0  0  0  0  0  0
   10.9348   14.6625   18.7558 N    0  0  0  0  0  0  0  0  0  0  0  0
   10.1118   16.6213   19.3324 O    0  0  0  0  0  0  0  0  0  0  0  0
    8.9119   15.2507   21.7706 C    0  0  0  0  0  0  0  0  0  0  0  0
    8.6680    8.9440   22.7191 H    0  0  0  0  0  0  0  0  0  0  0  0
    9.6680    8.4369   24.1073 H    0  0  0  0  0  0  0  0  0  0  0  0
   10.4328    9.1558   22.6706 H    0  0  0  0  0  0  0  0  0  0  0  0
    5.8198    8.5760   26.1701 H    0  0  0  0  0  0  0  0  0  0  0  0
    6.0073   14.9307   27.0239 H    0  0  0  0  0  0  0  0  0  0  0  0
    7.1213   13.9109   27.9604 H    0  0  0  0  0  0  0  0  0  0  0  0
    5.1783   15.5680   29.0328 H    0  0  0  0  0  0  0  0  0  0  0  0
    5.8601   14.1736   29.8846 H    0  0  0  0  0  0  0  0  0  0  0  0
    3.1905   14.4687   28.5755 H    0  0  0  0  0  0  0  0  0  0  0  0
    3.6638   13.4089   29.8959 H    0  0  0  0  0  0  0  0  0  0  0  0
    4.3899   11.7335   28.5759 H    0  0  0  0  0  0  0  0  0  0  0  0
    3.1956   11.8990   26.0810 H    0  0  0  0  0  0  0  0  0  0  0  0
    2.3529   13.1893   26.8491 H    0  0  0  0  0  0  0  0  0  0  0  0
    3.1255    9.5296   27.0242 H    0  0  0  0  0  0  0  0  0  0  0  0
    1.7695    7.8513   28.2166 H    0  0  0  0  0  0  0  0  0  0  0  0
   -0.1573    8.5672   29.6242 H    0  0  0  0  0  0  0  0  0  0  0  0
   -0.6862   10.9916   29.8657 H    0  0  0  0  0  0  0  0  0  0  0  0
    0.6950   12.6922   28.6904 H    0  0  0  0  0  0  0  0  0  0  0  0
    8.9685   13.3284   25.5459 H    0  0  0  0  0  0  0  0  0  0  0  0
    7.5328   14.2723   25.5976 H    0  0  0  0  0  0  0  0  0  0  0  0
    9.9303   15.2046   25.0439 H    0  0  0  0  0  0  0  0  0  0  0  0
    9.8487   16.4993   23.9238 H    0  0  0  0  0  0  0  0  0  0  0  0
   11.4939   13.9334   23.5236 H    0  0  0  0  0  0  0  0  0  0  0  0
   12.1393   15.4839   24.0335 H    0  0  0  0  0  0  0  0  0  0  0  0
   12.4190   15.0098   21.5551 H    0  0  0  0  0  0  0  0  0  0  0  0
   11.6009   16.5348   21.8919 H    0  0  0  0  0  0  0  0  0  0  0  0
   10.3527   13.8525   21.0649 H    0  0  0  0  0  0  0  0  0  0  0  0
   11.1189   13.6963   19.0133 H    0  0  0  0  0  0  0  0  0  0  0  0
   10.9719   14.9333   17.7782 H    0  0  0  0  0  0  0  0  0  0  0  0
    8.1300   14.8041   21.1512 H    0  0  0  0  0  0  0  0  0  0  0  0
    8.7121   16.3284   21.7472 H    0  0  0  0  0  0  0  0  0  0  0  0
  7 20  2  0  0  0  0
  6  7  1  0  0  0  0
  5  6  2  0  0  0  0
  4  5  1  0  0  0  0
  3  4  2  0  0  0  0
  2  3  1  0  0  0  0
  1  2  1  0  0  0  0
 33  1  1  0  0  0  0
 34  1  1  0  0  0  0
 35  1  1  0  0  0  0
 36  5  1  0  0  0  0
  8  7  1  0  0  0  0
  9  8  1  0  0  0  0
 10  9  1  0  0  0  0
 37  9  1  0  0  0  0
 38  9  1  0  0  0  0
 11 10  1  0  0  0  0
 39 10  1  0  0  0  0
 40 10  1  0  0  0  0
 12 11  1  0  0  0  0
 41 11  1  0  0  0  0
 42 11  1  0  0  0  0
 13 12  1  0  0  0  0
 43 12  1  0  0  0  0
 14 13  1  0  0  0  0
 44 13  1  0  0  0  0
 45 13  1  0  0  0  0
 15 14  2  0  0  0  0
 16 15  1  0  0  0  0
 46 15  1  0  0  0  0
 17 16  2  0  0  0  0
 47 16  1  0  0  0  0
 18 17  1  0  0  0  0
 48 17  1  0  0  0  0
 19 18  2  0  0  0  0
 49 18  1  0  0  0  0
 50 19  1  0  0  0  0
 21 20  1  0  0  0  0
 22 21  1  0  0  0  0
 51 21  1  0  0  0  0
 52 21  1  0  0  0  0
 23 22  2  0  0  0  0
 24 22  1  0  0  0  0
 25 24  1  0  0  0  0
 26 25  1  0  0  0  0
 53 25  1  0  0  0  0
 54 25  1  0  0  0  0
 27 26  1  0  0  0  0
 55 26  1  0  0  0  0
 56 26  1  0  0  0  0
 28 27  1  0  0  0  0
 57 27  1  0  0  0  0
 58 27  1  0  0  0  0
 29 28  1  0  0  0  0
 32 28  1  0  0  0  0
 59 28  1  0  0  0  0
 30 29  1  0  0  0  0
 31 29  2  0  0  0  0
 60 30  1  0  0  0  0
 61 30  1  0  0  0  0
 62 32  1  0  0  0  0
 63 32  1  0  0  0  0
 12  8  1  0  0  0  0
 19 14  1  0  0  0  0
 20  3  1  0  0  0  0
 32 24  1  0  0  0  0
M  END
>  <FittedScore>
-33.66

$$$$
