A71EV2A-x7433a_lowest-energy
  FITTED

 63 66     0  0  0  0  0  0  0999 V2000
    9.4946    9.2880   23.3974 C    0  0  0  0  0  0  0  0  0  0  0  0
    9.4480   10.9832   24.0641 S    0  0  0  0  0  0  0  0  0  0  0  0
    7.9366   11.0969   25.0246 C    0  0  0  0  0  0  0  0  0  0  0  0
    7.3859    9.9217   25.4355 N    0  0  0  0  0  0  0  0  0  0  0  0
    6.2238    9.9547   26.1343 C    0  0  0  0  0  0  0  0  0  0  0  0
    5.5683   11.0929   26.4801 N    0  0  0  0  0  0  0  0  0  0  0  0
    6.1071   12.2831   26.0968 C    0  0  0  0  0  0  0  0  0  0  0  0
    5.3787   13.3848   26.4910 N    0  0  0  0  0  0  0  0  0  0  0  0
    4.4600   14.0562   25.5633 C    0  0  0  0  0  0  0  0  0  0  0  0
    4.3425   15.5095   26.0566 C    0  0  0  0  0  0  0  0  0  0  0  0
    5.3741   15.6736   27.1891 C    0  0  0  0  0  0  0  0  0  0  0  0
    5.7814   14.2413   27.6262 C    0  0  0  0  0  0  0  0  0  0  0  0
    5.1407   13.7776   28.9759 C    0  0  0  0  0  0  0  0  0  0  0  0
    3.6135   13.6144   29.0021 C    0  0  0  0  0  0  0  0  0  0  0  0
    3.0248   12.3778   28.6682 C    0  0  0  0  0  0  0  0  0  0  0  0
    1.6313   12.2458   28.5975 C    0  0  0  0  0  0  0  0  0  0  0  0
    0.8085   13.3449   28.8872 C    0  0  0  0  0  0  0  0  0  0  0  0
    1.3809   14.5723   29.2541 C    0  0  0  0  0  0  0  0  0  0  0  0
    2.7763   14.7063   29.3105 C    0  0  0  0  0  0  0  0  0  0  0  0
    7.3222   12.3437   25.3413 C    0  0  0  0  0  0  0  0  0  0  0  0
    7.9638   13.6752   24.8788 C    0  0  0  0  0  0  0  0  0  0  0  0
    7.9350   13.9376   23.3647 C    0  0  0  0  0  0  0  0  0  0  0  0
    7.2511   13.2403   22.6403 O    0  0  0  0  0  0  0  0  0  0  0  0
    8.7453   14.9188   22.8378 N    0  0  0  0  0  0  0  0  0  0  0  0
    9.4622   15.9712   23.6167 C    0  0  0  0  0  0  0  0  0  0  0  0
   10.9956   15.8814   23.4351 C    0  0  0  0  0  0  0  0  0  0  0  0
   11.3809   16.0705   21.9491 C    0  0  0  0  0  0  0  0  0  0  0  0
   10.5378   15.1502   21.0129 C    0  0  0  0  0  0  0  0  0  0  0  0
   10.7271   15.5657   19.5548 C    0  0  0  0  0  0  0  0  0  0  0  0
   11.0528   14.5981   18.6966 N    0  0  0  0  0  0  0  0  0  0  0  0
   10.3873   16.6350   19.1047 O    0  0  0  0  0  0  0  0  0  0  0  0
    9.0125   15.0972   21.3746 C    0  0  0  0  0  0  0  0  0  0  0  0
    8.5625    9.0667   22.8719 H    0  0  0  0  0  0  0  0  0  0  0  0
    9.6386    8.5651   24.2016 H    0  0  0  0  0  0  0  0  0  0  0  0
   10.3270    9.2202   22.6930 H    0  0  0  0  0  0  0  0  0  0  0  0
    5.8003    9.0052   26.4506 H    0  0  0  0  0  0  0  0  0  0  0  0
    3.4800   13.5727   25.5625 H    0  0  0  0  0  0  0  0  0  0  0  0
    4.8243   14.0431   24.5304 H    0  0  0  0  0  0  0  0  0  0  0  0
    3.3324   15.7035   26.4330 H    0  0  0  0  0  0  0  0  0  0  0  0
    4.5408   16.2173   25.2445 H    0  0  0  0  0  0  0  0  0  0  0  0
    4.9714   16.2768   28.0090 H    0  0  0  0  0  0  0  0  0  0  0  0
    6.2497   16.2072   26.8101 H    0  0  0  0  0  0  0  0  0  0  0  0
    6.8691   14.2266   27.7599 H    0  0  0  0  0  0  0  0  0  0  0  0
    5.4310   14.4803   29.7651 H    0  0  0  0  0  0  0  0  0  0  0  0
    5.6077   12.8331   29.2701 H    0  0  0  0  0  0  0  0  0  0  0  0
    3.6411   11.5108   28.4552 H    0  0  0  0  0  0  0  0  0  0  0  0
    1.1927   11.2937   28.3119 H    0  0  0  0  0  0  0  0  0  0  0  0
   -0.2698   13.2435   28.8225 H    0  0  0  0  0  0  0  0  0  0  0  0
    0.7416   15.4214   29.4882 H    0  0  0  0  0  0  0  0  0  0  0  0
    3.2034   15.6697   29.5803 H    0  0  0  0  0  0  0  0  0  0  0  0
    8.9996   13.6792   25.2324 H    0  0  0  0  0  0  0  0  0  0  0  0
    7.5097   14.5352   25.3685 H    0  0  0  0  0  0  0  0  0  0  0  0
    9.2372   15.9806   24.6814 H    0  0  0  0  0  0  0  0  0  0  0  0
    9.1191   16.9585   23.2763 H    0  0  0  0  0  0  0  0  0  0  0  0
   11.3652   14.9198   23.8009 H    0  0  0  0  0  0  0  0  0  0  0  0
   11.4768   16.6578   24.0318 H    0  0  0  0  0  0  0  0  0  0  0  0
   12.4433   15.8503   21.8196 H    0  0  0  0  0  0  0  0  0  0  0  0
   11.2406   17.1234   21.6798 H    0  0  0  0  0  0  0  0  0  0  0  0
   10.9215   14.1318   21.1605 H    0  0  0  0  0  0  0  0  0  0  0  0
   11.1365   13.6386   19.0085 H    0  0  0  0  0  0  0  0  0  0  0  0
   11.0575   14.7887   17.6987 H    0  0  0  0  0  0  0  0  0  0  0  0
    8.5541   14.3037   20.7764 H    0  0  0  0  0  0  0  0  0  0  0  0
    8.5139   16.0154   21.0521 H    0  0  0  0  0  0  0  0  0  0  0  0
  7 20  2  0  0  0  0
  6  7  1  0  0  0  0
  5  6  2  0  0  0  0
  4  5  1  0  0  0  0
  3  4  2  0  0  0  0
  2  3  1  0  0  0  0
  1  2  1  0  0  0  0
 33  1  1  0  0  0  0
 34  1  1  0  0  0  0
 35  1  1  0  0  0  0
 36  5  1  0  0  0  0
  8  7  1  0  0  0  0
  9  8  1  0  0  0  0
 10  9  1  0  0  0  0
 37  9  1  0  0  0  0
 38  9  1  0  0  0  0
 11 10  1  0  0  0  0
 39 10  1  0  0  0  0
 40 10  1  0  0  0  0
 12 11  1  0  0  0  0
 41 11  1  0  0  0  0
 42 11  1  0  0  0  0
 13 12  1  0  0  0  0
 43 12  1  0  0  0  0
 14 13  1  0  0  0  0
 44 13  1  0  0  0  0
 45 13  1  0  0  0  0
 15 14  2  0  0  0  0
 16 15  1  0  0  0  0
 46 15  1  0  0  0  0
 17 16  2  0  0  0  0
 47 16  1  0  0  0  0
 18 17  1  0  0  0  0
 48 17  1  0  0  0  0
 19 18  2  0  0  0  0
 49 18  1  0  0  0  0
 50 19  1  0  0  0  0
 21 20  1  0  0  0  0
 22 21  1  0  0  0  0
 51 21  1  0  0  0  0
 52 21  1  0  0  0  0
 23 22  2  0  0  0  0
 24 22  1  0  0  0  0
 25 24  1  0  0  0  0
 26 25  1  0  0  0  0
 53 25  1  0  0  0  0
 54 25  1  0  0  0  0
 27 26  1  0  0  0  0
 55 26  1  0  0  0  0
 56 26  1  0  0  0  0
 28 27  1  0  0  0  0
 57 27  1  0  0  0  0
 58 27  1  0  0  0  0
 29 28  1  0  0  0  0
 32 28  1  0  0  0  0
 59 28  1  0  0  0  0
 30 29  1  0  0  0  0
 31 29  2  0  0  0  0
 60 30  1  0  0  0  0
 61 30  1  0  0  0  0
 62 32  1  0  0  0  0
 63 32  1  0  0  0  0
 12  8  1  0  0  0  0
 19 14  1  0  0  0  0
 20  3  1  0  0  0  0
 32 24  1  0  0  0  0
M  END
>  <FittedScore>
-32.29

$$$$
