A71EV2A-x5766a_lowest-energy
  FITTED

 42 44     0  0  0  0  0  0  0999 V2000
   12.1889   17.0517   22.1187 C    0  0  0  0  0  0  0  0  0  0  0  0
   11.9269   15.5223   21.9819 C    0  0  0  0  0  0  0  0  0  0  0  0
   12.0770   14.7985   23.3541 C    0  0  0  0  0  0  0  0  0  0  0  0
   10.9265   15.0265   24.3309 C    0  0  0  0  0  0  0  0  0  0  0  0
   11.1281   14.8311   25.5194 O    0  0  0  0  0  0  0  0  0  0  0  0
    9.6693   15.2660   23.8171 N    0  0  0  0  0  0  0  0  0  0  0  0
    8.4330   15.1824   24.6539 C    0  0  0  0  0  0  0  0  0  0  0  0
    7.9701   13.7487   24.9578 C    0  0  0  0  0  0  0  0  0  0  0  0
    6.8975   13.5804   25.8731 C    0  0  0  0  0  0  0  0  0  0  0  0
    6.3961   12.3016   26.1765 C    0  0  0  0  0  0  0  0  0  0  0  0
    6.9997   11.2055   25.5573 C    0  0  0  0  0  0  0  0  0  0  0  0
    6.7376    9.7640   25.6361 C    0  0  0  0  0  0  0  0  0  0  0  0
    7.5955    9.1653   24.8666 N    0  0  0  0  0  0  0  0  0  0  0  0
    8.4089   10.1025   24.2923 N    0  0  0  0  0  0  0  0  0  0  0  0
    9.5693    9.7244   23.4757 C    0  0  0  0  0  0  0  0  0  0  0  0
    8.0516   11.3522   24.6911 C    0  0  0  0  0  0  0  0  0  0  0  0
    8.5615   12.6062   24.3578 C    0  0  0  0  0  0  0  0  0  0  0  0
    9.3763   15.4999   22.3597 C    0  0  0  0  0  0  0  0  0  0  0  0
   10.5359   15.1372   21.3782 C    0  0  0  0  0  0  0  0  0  0  0  0
   10.3411   15.6523   19.9354 C    0  0  0  0  0  0  0  0  0  0  0  0
   10.6638   14.7829   18.9510 N    0  0  0  0  0  0  0  0  0  0  0  0
    9.9225   16.7580   19.6475 O    0  0  0  0  0  0  0  0  0  0  0  0
   11.4522   17.5378   22.7629 H    0  0  0  0  0  0  0  0  0  0  0  0
   12.1677   17.5498   21.1471 H    0  0  0  0  0  0  0  0  0  0  0  0
   13.1757   17.2365   22.5491 H    0  0  0  0  0  0  0  0  0  0  0  0
   12.7055   15.1250   21.3205 H    0  0  0  0  0  0  0  0  0  0  0  0
   13.0195   15.0957   23.8243 H    0  0  0  0  0  0  0  0  0  0  0  0
   12.1612   13.7204   23.1846 H    0  0  0  0  0  0  0  0  0  0  0  0
    7.6054   15.7193   24.1838 H    0  0  0  0  0  0  0  0  0  0  0  0
    8.6051   15.7055   25.5972 H    0  0  0  0  0  0  0  0  0  0  0  0
    6.4487   14.4447   26.3583 H    0  0  0  0  0  0  0  0  0  0  0  0
    5.5771   12.1663   26.8778 H    0  0  0  0  0  0  0  0  0  0  0  0
    5.9709    9.2519   26.2107 H    0  0  0  0  0  0  0  0  0  0  0  0
   10.4850   10.1996   23.8373 H    0  0  0  0  0  0  0  0  0  0  0  0
    9.4337   10.0188   22.4337 H    0  0  0  0  0  0  0  0  0  0  0  0
    9.7507    8.6465   23.4861 H    0  0  0  0  0  0  0  0  0  0  0  0
    9.3860   12.6669   23.6490 H    0  0  0  0  0  0  0  0  0  0  0  0
    9.1206   16.5555   22.2390 H    0  0  0  0  0  0  0  0  0  0  0  0
    8.4920   14.9316   22.0494 H    0  0  0  0  0  0  0  0  0  0  0  0
   10.5149   14.0431   21.3263 H    0  0  0  0  0  0  0  0  0  0  0  0
   10.5390   15.0416   17.9769 H    0  0  0  0  0  0  0  0  0  0  0  0
   10.8503   13.8100   19.1859 H    0  0  0  0  0  0  0  0  0  0  0  0
  4  6  1  0  0  0  0
  3  4  1  0  0  0  0
  2  3  1  0  0  0  0
  1  2  1  0  0  0  0
 23  1  1  0  0  0  0
 24  1  1  0  0  0  0
 25  1  1  0  0  0  0
 26  2  1  0  0  0  0
 27  3  1  0  0  0  0
 28  3  1  0  0  0  0
  5  4  2  0  0  0  0
  7  6  1  0  0  0  0
 18  6  1  0  0  0  0
  8  7  1  0  0  0  0
 29  7  1  0  0  0  0
 30  7  1  0  0  0  0
  9  8  2  0  0  0  0
 10  9  1  0  0  0  0
 31  9  1  0  0  0  0
 11 10  2  0  0  0  0
 32 10  1  0  0  0  0
 12 11  1  0  0  0  0
 13 12  2  0  0  0  0
 33 12  1  0  0  0  0
 14 13  1  0  0  0  0
 15 14  1  0  0  0  0
 16 14  1  0  0  0  0
 34 15  1  0  0  0  0
 35 15  1  0  0  0  0
 36 15  1  0  0  0  0
 17 16  2  0  0  0  0
 37 17  1  0  0  0  0
 19 18  1  0  0  0  0
 38 18  1  0  0  0  0
 39 18  1  0  0  0  0
 20 19  1  0  0  0  0
 40 19  1  0  0  0  0
 21 20  1  0  0  0  0
 22 20  2  0  0  0  0
 41 21  1  0  0  0  0
 42 21  1  0  0  0  0
 16 11  1  0  0  0  0
 17  8  1  0  0  0  0
 19  2  1  0  0  0  0
M  END
>  <FittedScore>
-28.38

$$$$
