A71EV2A-x5766a_best-RMSD
  FITTED

 42 44     0  0  0  0  0  0  0999 V2000
   12.3853   16.8535   22.0135 C    0  0  0  0  0  0  0  0  0  0  0  0
   11.9762   15.3562   21.8777 C    0  0  0  0  0  0  0  0  0  0  0  0
   12.0860   14.6123   23.2404 C    0  0  0  0  0  0  0  0  0  0  0  0
   10.9761   14.9275   24.2370 C    0  0  0  0  0  0  0  0  0  0  0  0
   11.1833   14.7307   25.4236 O    0  0  0  0  0  0  0  0  0  0  0  0
    9.7262   15.2222   23.7316 N    0  0  0  0  0  0  0  0  0  0  0  0
    8.4841   15.1444   24.5550 C    0  0  0  0  0  0  0  0  0  0  0  0
    7.9966   13.7152   24.8380 C    0  0  0  0  0  0  0  0  0  0  0  0
    6.8884   13.5680   25.7098 C    0  0  0  0  0  0  0  0  0  0  0  0
    6.3741   12.2977   26.0293 C    0  0  0  0  0  0  0  0  0  0  0  0
    6.9987   11.1890   25.4663 C    0  0  0  0  0  0  0  0  0  0  0  0
    6.7290    9.7528   25.5789 C    0  0  0  0  0  0  0  0  0  0  0  0
    7.5867    9.1367   24.8273 N    0  0  0  0  0  0  0  0  0  0  0  0
    8.4141   10.0548   24.2428 N    0  0  0  0  0  0  0  0  0  0  0  0
    9.5321    9.6443   23.3867 C    0  0  0  0  0  0  0  0  0  0  0  0
    8.0632   11.3119   24.6107 C    0  0  0  0  0  0  0  0  0  0  0  0
    8.5857   12.5578   24.2664 C    0  0  0  0  0  0  0  0  0  0  0  0
    9.4419   15.5382   22.2933 C    0  0  0  0  0  0  0  0  0  0  0  0
   10.5488   15.0951   21.2943 C    0  0  0  0  0  0  0  0  0  0  0  0
   10.3726   15.6506   19.8732 C    0  0  0  0  0  0  0  0  0  0  0  0
   10.6586   14.7850   18.8783 N    0  0  0  0  0  0  0  0  0  0  0  0
    9.9689   16.7690   19.6164 O    0  0  0  0  0  0  0  0  0  0  0  0
   13.4145   16.9381   22.3718 H    0  0  0  0  0  0  0  0  0  0  0  0
   11.7434   17.3951   22.7102 H    0  0  0  0  0  0  0  0  0  0  0  0
   12.3472   17.3662   21.0506 H    0  0  0  0  0  0  0  0  0  0  0  0
   12.7050   14.8948   21.2014 H    0  0  0  0  0  0  0  0  0  0  0  0
   13.0594   14.8166   23.6974 H    0  0  0  0  0  0  0  0  0  0  0  0
   12.0741   13.5312   23.0597 H    0  0  0  0  0  0  0  0  0  0  0  0
    7.6677   15.7072   24.0928 H    0  0  0  0  0  0  0  0  0  0  0  0
    8.6658   15.6579   25.5024 H    0  0  0  0  0  0  0  0  0  0  0  0
    6.4183   14.4440   26.1472 H    0  0  0  0  0  0  0  0  0  0  0  0
    5.5217   12.1895   26.6908 H    0  0  0  0  0  0  0  0  0  0  0  0
    5.9591    9.2505   26.1611 H    0  0  0  0  0  0  0  0  0  0  0  0
    9.5896    8.5610   23.2536 H    0  0  0  0  0  0  0  0  0  0  0  0
   10.4881    9.9656   23.8042 H    0  0  0  0  0  0  0  0  0  0  0  0
    9.4491   10.0762   22.3876 H    0  0  0  0  0  0  0  0  0  0  0  0
    9.4315   12.6026   23.5880 H    0  0  0  0  0  0  0  0  0  0  0  0
    9.2977   16.6208   22.2216 H    0  0  0  0  0  0  0  0  0  0  0  0
    8.5061   15.0758   21.9630 H    0  0  0  0  0  0  0  0  0  0  0  0
   10.4379   13.9999   21.2319 H    0  0  0  0  0  0  0  0  0  0  0  0
   10.5170   15.0530   17.9110 H    0  0  0  0  0  0  0  0  0  0  0  0
   10.8321   13.8044   19.0983 H    0  0  0  0  0  0  0  0  0  0  0  0
  4  6  1  0  0  0  0
  3  4  1  0  0  0  0
  2  3  1  0  0  0  0
  1  2  1  0  0  0  0
 23  1  1  0  0  0  0
 24  1  1  0  0  0  0
 25  1  1  0  0  0  0
 26  2  1  0  0  0  0
 27  3  1  0  0  0  0
 28  3  1  0  0  0  0
  5  4  2  0  0  0  0
  7  6  1  0  0  0  0
 18  6  1  0  0  0  0
  8  7  1  0  0  0  0
 29  7  1  0  0  0  0
 30  7  1  0  0  0  0
  9  8  2  0  0  0  0
 10  9  1  0  0  0  0
 31  9  1  0  0  0  0
 11 10  2  0  0  0  0
 32 10  1  0  0  0  0
 12 11  1  0  0  0  0
 13 12  2  0  0  0  0
 33 12  1  0  0  0  0
 14 13  1  0  0  0  0
 15 14  1  0  0  0  0
 16 14  1  0  0  0  0
 34 15  1  0  0  0  0
 35 15  1  0  0  0  0
 36 15  1  0  0  0  0
 17 16  2  0  0  0  0
 37 17  1  0  0  0  0
 19 18  1  0  0  0  0
 38 18  1  0  0  0  0
 39 18  1  0  0  0  0
 20 19  1  0  0  0  0
 40 19  1  0  0  0  0
 21 20  1  0  0  0  0
 22 20  2  0  0  0  0
 41 21  1  0  0  0  0
 42 21  1  0  0  0  0
 16 11  1  0  0  0  0
 17  8  1  0  0  0  0
 19  2  1  0  0  0  0
M  END
>  <FittedScore>
-28.46

$$$$
