A71EV2A-x4606a_best-RMSD
  FITTED

 37 39     0  0  0  0  0  0  0999 V2000
    7.4345   12.9914   22.8009 O    0  0  0  0  0  0  0  0  0  0  0  0
    8.1823   13.5417   23.5980 C    0  0  0  0  0  0  0  0  0  0  0  0
    8.9264   14.6482   23.2307 N    0  0  0  0  0  0  0  0  0  0  0  0
    9.9122   15.4210   24.0775 C    0  0  0  0  0  0  0  0  0  0  0  0
   11.3421   15.4952   23.4672 C    0  0  0  0  0  0  0  0  0  0  0  0
   11.3157   16.0156   22.0069 C    0  0  0  0  0  0  0  0  0  0  0  0
    8.8798   15.2329   21.8487 C    0  0  0  0  0  0  0  0  0  0  0  0
   10.2808   15.2198   21.1616 C    0  0  0  0  0  0  0  0  0  0  0  0
   10.2357   15.7259   19.7202 C    0  0  0  0  0  0  0  0  0  0  0  0
    9.7624   16.7989   19.3958 O    0  0  0  0  0  0  0  0  0  0  0  0
   10.6510   14.8534   18.7824 N    0  0  0  0  0  0  0  0  0  0  0  0
    8.4501   12.8646   24.9522 C    0  0  0  0  0  0  0  0  0  0  0  0
    7.3773   11.8821   25.3773 C    0  0  0  0  0  0  0  0  0  0  0  0
    7.6641   10.5457   25.0823 C    0  0  0  0  0  0  0  0  0  0  0  0
    9.0029   10.2964   24.4240 C    0  0  0  0  0  0  0  0  0  0  0  0
    9.9347   11.8041   24.8254 S    0  0  0  0  0  0  0  0  0  0  0  0
    6.2275   12.2735   25.9991 N    0  0  0  0  0  0  0  0  0  0  0  0
    5.3306   11.3066   26.3449 C    0  0  0  0  0  0  0  0  0  0  0  0
    5.5486    9.9417   26.0701 C    0  0  0  0  0  0  0  0  0  0  0  0
    6.7309    9.5563   25.4169 C    0  0  0  0  0  0  0  0  0  0  0  0
    9.5290   16.4351   24.2233 H    0  0  0  0  0  0  0  0  0  0  0  0
   10.0332   15.0287   25.0827 H    0  0  0  0  0  0  0  0  0  0  0  0
   11.9698   16.1512   24.0751 H    0  0  0  0  0  0  0  0  0  0  0  0
   11.8037   14.5029   23.4940 H    0  0  0  0  0  0  0  0  0  0  0  0
   11.0681   17.0812   22.0042 H    0  0  0  0  0  0  0  0  0  0  0  0
   12.3114   15.9183   21.5663 H    0  0  0  0  0  0  0  0  0  0  0  0
    8.4910   16.2532   21.9083 H    0  0  0  0  0  0  0  0  0  0  0  0
    8.1782   14.7147   21.1911 H    0  0  0  0  0  0  0  0  0  0  0  0
   10.6101   14.1725   21.1600 H    0  0  0  0  0  0  0  0  0  0  0  0
   10.8594   13.8898   19.0400 H    0  0  0  0  0  0  0  0  0  0  0  0
   10.6062   15.1202   17.8057 H    0  0  0  0  0  0  0  0  0  0  0  0
    8.5716   13.5785   25.7692 H    0  0  0  0  0  0  0  0  0  0  0  0
    9.5195    9.4215   24.8209 H    0  0  0  0  0  0  0  0  0  0  0  0
    8.8987   10.2108   23.3381 H    0  0  0  0  0  0  0  0  0  0  0  0
    4.4111   11.6042   26.8399 H    0  0  0  0  0  0  0  0  0  0  0  0
    4.8028    9.1995   26.3422 H    0  0  0  0  0  0  0  0  0  0  0  0
    6.9179    8.5146   25.1743 H    0  0  0  0  0  0  0  0  0  0  0  0
  2  1  2  0  0  0  0
  3  2  1  0  0  0  0
  4  3  1  0  0  0  0
 21  4  1  0  0  0  0
 22  4  1  0  0  0  0
  5  4  1  0  0  0  0
 23  5  1  0  0  0  0
 24  5  1  0  0  0  0
  6  5  1  0  0  0  0
 25  6  1  0  0  0  0
 26  6  1  0  0  0  0
  7  3  1  0  0  0  0
 27  7  1  0  0  0  0
 28  7  1  0  0  0  0
  8  6  1  0  0  0  0
  9  8  1  0  0  0  0
 29  8  1  0  0  0  0
 10  9  2  0  0  0  0
 11  9  1  0  0  0  0
 30 11  1  0  0  0  0
 31 11  1  0  0  0  0
 12  2  1  0  0  0  0
 16 12  1  0  0  0  0
 32 12  1  0  0  0  0
 13 12  1  0  0  0  0
 14 13  1  0  0  0  0
 20 14  2  0  0  0  0
 15 14  1  0  0  0  0
 33 15  1  0  0  0  0
 34 15  1  0  0  0  0
 17 13  2  0  0  0  0
 18 17  1  0  0  0  0
 35 18  1  0  0  0  0
 19 18  2  0  0  0  0
 36 19  1  0  0  0  0
 37 20  1  0  0  0  0
  8  7  1  0  0  0  0
 16 15  1  0  0  0  0
 20 19  1  0  0  0  0
M  END
>  <FittedScore>
-33.39

$$$$
