A71EV2A-x4606a_lowest-energy
  FITTED

 37 39     0  0  0  0  0  0  0999 V2000
    7.4064   12.9561   22.7662 O    0  0  0  0  0  0  0  0  0  0  0  0
    8.1614   13.4987   23.5547 C    0  0  0  0  0  0  0  0  0  0  0  0
    8.8855   14.6182   23.1860 N    0  0  0  0  0  0  0  0  0  0  0  0
    9.8666   15.3908   24.0259 C    0  0  0  0  0  0  0  0  0  0  0  0
   11.3002   15.4401   23.4257 C    0  0  0  0  0  0  0  0  0  0  0  0
   11.3014   15.9093   21.9479 C    0  0  0  0  0  0  0  0  0  0  0  0
    8.8376   15.2067   21.8070 C    0  0  0  0  0  0  0  0  0  0  0  0
   10.2297   15.1525   21.1112 C    0  0  0  0  0  0  0  0  0  0  0  0
   10.1922   15.6776   19.6765 C    0  0  0  0  0  0  0  0  0  0  0  0
    9.7302   16.7588   19.3610 O    0  0  0  0  0  0  0  0  0  0  0  0
   10.6510   14.8212   18.7434 N    0  0  0  0  0  0  0  0  0  0  0  0
    8.4415   12.8038   24.8957 C    0  0  0  0  0  0  0  0  0  0  0  0
    7.3472   11.8575   25.3493 C    0  0  0  0  0  0  0  0  0  0  0  0
    7.6188   10.4992   25.1507 C    0  0  0  0  0  0  0  0  0  0  0  0
    8.9664   10.1776   24.5480 C    0  0  0  0  0  0  0  0  0  0  0  0
    9.9094   11.7228   24.7495 S    0  0  0  0  0  0  0  0  0  0  0  0
    6.1913   12.3056   25.9184 N    0  0  0  0  0  0  0  0  0  0  0  0
    5.2760   11.3755   26.3167 C    0  0  0  0  0  0  0  0  0  0  0  0
    5.4814    9.9933   26.1454 C    0  0  0  0  0  0  0  0  0  0  0  0
    6.6667    9.5503   25.5370 C    0  0  0  0  0  0  0  0  0  0  0  0
    9.4916   16.4107   24.1407 H    0  0  0  0  0  0  0  0  0  0  0  0
    9.9658   15.0243   25.0430 H    0  0  0  0  0  0  0  0  0  0  0  0
   11.9221   16.1165   24.0178 H    0  0  0  0  0  0  0  0  0  0  0  0
   11.7568   14.4489   23.4890 H    0  0  0  0  0  0  0  0  0  0  0  0
   11.1223   16.9881   21.9091 H    0  0  0  0  0  0  0  0  0  0  0  0
   12.2872   15.7375   21.5130 H    0  0  0  0  0  0  0  0  0  0  0  0
    8.4834   16.2404   21.8684 H    0  0  0  0  0  0  0  0  0  0  0  0
    8.1190   14.7057   21.1565 H    0  0  0  0  0  0  0  0  0  0  0  0
   10.5161   14.0912   21.1025 H    0  0  0  0  0  0  0  0  0  0  0  0
   10.8788   13.8633   19.0121 H    0  0  0  0  0  0  0  0  0  0  0  0
   10.6127   15.0731   17.7656 H    0  0  0  0  0  0  0  0  0  0  0  0
    8.5960   13.5044   25.7187 H    0  0  0  0  0  0  0  0  0  0  0  0
    9.4773    9.3639   25.0670 H    0  0  0  0  0  0  0  0  0  0  0  0
    8.8697    9.9337   23.4884 H    0  0  0  0  0  0  0  0  0  0  0  0
    4.3549   11.7205   26.7758 H    0  0  0  0  0  0  0  0  0  0  0  0
    4.7308    9.2778   26.4718 H    0  0  0  0  0  0  0  0  0  0  0  0
    6.8529    8.4919   25.3866 H    0  0  0  0  0  0  0  0  0  0  0  0
  2  1  2  0  0  0  0
  3  2  1  0  0  0  0
  4  3  1  0  0  0  0
 21  4  1  0  0  0  0
 22  4  1  0  0  0  0
  5  4  1  0  0  0  0
 23  5  1  0  0  0  0
 24  5  1  0  0  0  0
  6  5  1  0  0  0  0
 25  6  1  0  0  0  0
 26  6  1  0  0  0  0
  7  3  1  0  0  0  0
 27  7  1  0  0  0  0
 28  7  1  0  0  0  0
  8  6  1  0  0  0  0
  9  8  1  0  0  0  0
 29  8  1  0  0  0  0
 10  9  2  0  0  0  0
 11  9  1  0  0  0  0
 30 11  1  0  0  0  0
 31 11  1  0  0  0  0
 12  2  1  0  0  0  0
 16 12  1  0  0  0  0
 32 12  1  0  0  0  0
 13 12  1  0  0  0  0
 14 13  1  0  0  0  0
 20 14  2  0  0  0  0
 15 14  1  0  0  0  0
 33 15  1  0  0  0  0
 34 15  1  0  0  0  0
 17 13  2  0  0  0  0
 18 17  1  0  0  0  0
 35 18  1  0  0  0  0
 19 18  2  0  0  0  0
 36 19  1  0  0  0  0
 37 20  1  0  0  0  0
  8  7  1  0  0  0  0
 16 15  1  0  0  0  0
 20 19  1  0  0  0  0
M  END
>  <FittedScore>
-33.79

$$$$
