A71EV2A-x4331a_lowest-energy
  FITTED

 42 43     0  0  0  0  0  0  0999 V2000
    9.7552   16.7372   19.1545 O    0  0  0  0  0  0  0  0  0  0  0  0
   10.3227   15.7416   19.5630 C    0  0  0  0  0  0  0  0  0  0  0  0
   10.8608   14.8626   18.6992 N    0  0  0  0  0  0  0  0  0  0  0  0
   10.3356   15.3063   21.0292 C    0  0  0  0  0  0  0  0  0  0  0  0
   11.1797   16.2797   21.9010 C    0  0  0  0  0  0  0  0  0  0  0  0
   11.1567   15.8341   23.3857 C    0  0  0  0  0  0  0  0  0  0  0  0
    9.6989   15.6359   23.8873 C    0  0  0  0  0  0  0  0  0  0  0  0
    8.8946   15.1362   21.6073 C    0  0  0  0  0  0  0  0  0  0  0  0
    8.8905   14.6839   23.0396 N    0  0  0  0  0  0  0  0  0  0  0  0
    8.1464   13.6154   23.4970 C    0  0  0  0  0  0  0  0  0  0  0  0
    7.3698   13.0263   22.7614 O    0  0  0  0  0  0  0  0  0  0  0  0
    8.3138   13.1615   24.9556 C    0  0  0  0  0  0  0  0  0  0  0  0
    7.4974   11.9199   25.3460 C    0  0  0  0  0  0  0  0  0  0  0  0
    7.8543   10.5932   24.9614 C    0  0  0  0  0  0  0  0  0  0  0  0
    9.1420   10.2895   24.1549 C    0  0  0  0  0  0  0  0  0  0  0  0
    9.5181    8.8225   23.8311 C    0  0  0  0  0  0  0  0  0  0  0  0
    6.3254   12.1441   26.1009 C    0  0  0  0  0  0  0  0  0  0  0  0
    5.5057   11.0823   26.4841 C    0  0  0  0  0  0  0  0  0  0  0  0
    5.8256    9.7862   26.0839 C    0  0  0  0  0  0  0  0  0  0  0  0
    6.9791    9.5477   25.3279 C    0  0  0  0  0  0  0  0  0  0  0  0
   10.8194   15.0420   17.7033 H    0  0  0  0  0  0  0  0  0  0  0  0
   11.1588   13.9425   19.0229 H    0  0  0  0  0  0  0  0  0  0  0  0
   10.8121   14.3185   21.1076 H    0  0  0  0  0  0  0  0  0  0  0  0
   12.2110   16.3109   21.5438 H    0  0  0  0  0  0  0  0  0  0  0  0
   10.7828   17.2958   21.8242 H    0  0  0  0  0  0  0  0  0  0  0  0
   11.7163   14.9003   23.5071 H    0  0  0  0  0  0  0  0  0  0  0  0
   11.6572   16.5863   24.0037 H    0  0  0  0  0  0  0  0  0  0  0  0
    9.7659   15.3519   24.9388 H    0  0  0  0  0  0  0  0  0  0  0  0
    9.1926   16.6090   23.9015 H    0  0  0  0  0  0  0  0  0  0  0  0
    8.3561   14.4469   20.9540 H    0  0  0  0  0  0  0  0  0  0  0  0
    8.3482   16.0823   21.5406 H    0  0  0  0  0  0  0  0  0  0  0  0
    9.3696   12.9795   25.1683 H    0  0  0  0  0  0  0  0  0  0  0  0
    8.0265   13.9928   25.6088 H    0  0  0  0  0  0  0  0  0  0  0  0
    9.0947   10.8185   23.1995 H    0  0  0  0  0  0  0  0  0  0  0  0
    9.9968   10.7098   24.6904 H    0  0  0  0  0  0  0  0  0  0  0  0
   10.4412    8.7781   23.2471 H    0  0  0  0  0  0  0  0  0  0  0  0
    8.7358    8.3337   23.2439 H    0  0  0  0  0  0  0  0  0  0  0  0
    9.6781    8.2539   24.7491 H    0  0  0  0  0  0  0  0  0  0  0  0
    6.0394   13.1498   26.3977 H    0  0  0  0  0  0  0  0  0  0  0  0
    4.6161   11.2674   27.0773 H    0  0  0  0  0  0  0  0  0  0  0  0
    5.1796    8.9542   26.3600 H    0  0  0  0  0  0  0  0  0  0  0  0
    7.1718    8.5190   25.0449 H    0  0  0  0  0  0  0  0  0  0  0  0
  9 10  1  0  0  0  0
  7  9  1  0  0  0  0
  6  7  1  0  0  0  0
  5  6  1  0  0  0  0
  4  5  1  0  0  0  0
  2  4  1  0  0  0  0
  1  2  2  0  0  0  0
  3  2  1  0  0  0  0
 21  3  1  0  0  0  0
 22  3  1  0  0  0  0
 23  4  1  0  0  0  0
 24  5  1  0  0  0  0
 25  5  1  0  0  0  0
 26  6  1  0  0  0  0
 27  6  1  0  0  0  0
 28  7  1  0  0  0  0
 29  7  1  0  0  0  0
  8  4  1  0  0  0  0
 30  8  1  0  0  0  0
 31  8  1  0  0  0  0
 11 10  2  0  0  0  0
 12 10  1  0  0  0  0
 32 12  1  0  0  0  0
 33 12  1  0  0  0  0
 13 12  1  0  0  0  0
 14 13  1  0  0  0  0
 20 14  2  0  0  0  0
 15 14  1  0  0  0  0
 34 15  1  0  0  0  0
 35 15  1  0  0  0  0
 16 15  1  0  0  0  0
 36 16  1  0  0  0  0
 37 16  1  0  0  0  0
 38 16  1  0  0  0  0
 17 13  2  0  0  0  0
 39 17  1  0  0  0  0
 18 17  1  0  0  0  0
 40 18  1  0  0  0  0
 19 18  2  0  0  0  0
 41 19  1  0  0  0  0
 42 20  1  0  0  0  0
  9  8  1  0  0  0  0
 20 19  1  0  0  0  0
M  END
>  <FittedScore>
-33.02

$$$$
