A71EV2A-x4331a_best-RMSD
  FITTED

 42 43     0  0  0  0  0  0  0999 V2000
    9.8875   16.8336   19.2224 O    0  0  0  0  0  0  0  0  0  0  0  0
   10.3454   15.7680   19.5847 C    0  0  0  0  0  0  0  0  0  0  0  0
   10.7394   14.8543   18.6833 N    0  0  0  0  0  0  0  0  0  0  0  0
   10.4074   15.3069   21.0391 C    0  0  0  0  0  0  0  0  0  0  0  0
   11.3306   16.2270   21.8852 C    0  0  0  0  0  0  0  0  0  0  0  0
   11.3644   15.7283   23.3520 C    0  0  0  0  0  0  0  0  0  0  0  0
    9.9341   15.5361   23.9315 C    0  0  0  0  0  0  0  0  0  0  0  0
    8.9874   15.1958   21.6777 C    0  0  0  0  0  0  0  0  0  0  0  0
    9.0329   14.6689   23.0837 N    0  0  0  0  0  0  0  0  0  0  0  0
    8.2490   13.6187   23.5215 C    0  0  0  0  0  0  0  0  0  0  0  0
    7.4233   13.0969   22.7865 O    0  0  0  0  0  0  0  0  0  0  0  0
    8.4273   13.1090   24.9620 C    0  0  0  0  0  0  0  0  0  0  0  0
    7.5591   11.8962   25.3336 C    0  0  0  0  0  0  0  0  0  0  0  0
    7.8891   10.5596   24.9652 C    0  0  0  0  0  0  0  0  0  0  0  0
    9.1949   10.2358   24.2033 C    0  0  0  0  0  0  0  0  0  0  0  0
    9.5106    8.7861   23.7727 C    0  0  0  0  0  0  0  0  0  0  0  0
    6.3742   12.1539   26.0532 C    0  0  0  0  0  0  0  0  0  0  0  0
    5.5225   11.1120   26.4305 C    0  0  0  0  0  0  0  0  0  0  0  0
    5.8320    9.8019   26.0687 C    0  0  0  0  0  0  0  0  0  0  0  0
    6.9909    9.5313   25.3298 C    0  0  0  0  0  0  0  0  0  0  0  0
   10.7486   15.0911   17.7017 H    0  0  0  0  0  0  0  0  0  0  0  0
   10.9880   13.9112   18.9763 H    0  0  0  0  0  0  0  0  0  0  0  0
   10.8437   14.2974   21.0804 H    0  0  0  0  0  0  0  0  0  0  0  0
   12.3422   16.2291   21.4685 H    0  0  0  0  0  0  0  0  0  0  0  0
   10.9725   17.2610   21.8558 H    0  0  0  0  0  0  0  0  0  0  0  0
   11.9108   14.7797   23.4016 H    0  0  0  0  0  0  0  0  0  0  0  0
   11.9187   16.4466   23.9649 H    0  0  0  0  0  0  0  0  0  0  0  0
   10.0700   15.1615   24.9435 H    0  0  0  0  0  0  0  0  0  0  0  0
    9.4652   16.5193   24.0510 H    0  0  0  0  0  0  0  0  0  0  0  0
    8.3844   14.5709   21.0132 H    0  0  0  0  0  0  0  0  0  0  0  0
    8.4937   16.1745   21.6766 H    0  0  0  0  0  0  0  0  0  0  0  0
    9.4778   12.8683   25.1395 H    0  0  0  0  0  0  0  0  0  0  0  0
    8.2036   13.9270   25.6517 H    0  0  0  0  0  0  0  0  0  0  0  0
    9.2229   10.8361   23.2926 H    0  0  0  0  0  0  0  0  0  0  0  0
   10.0391   10.5659   24.8165 H    0  0  0  0  0  0  0  0  0  0  0  0
    9.5418    8.1151   24.6321 H    0  0  0  0  0  0  0  0  0  0  0  0
   10.4899    8.7429   23.2890 H    0  0  0  0  0  0  0  0  0  0  0  0
    8.7665    8.4200   23.0593 H    0  0  0  0  0  0  0  0  0  0  0  0
    6.1023   13.1705   26.3249 H    0  0  0  0  0  0  0  0  0  0  0  0
    4.6156   11.3253   26.9899 H    0  0  0  0  0  0  0  0  0  0  0  0
    5.1673    8.9870   26.3507 H    0  0  0  0  0  0  0  0  0  0  0  0
    7.1760    8.4956   25.0662 H    0  0  0  0  0  0  0  0  0  0  0  0
  9 10  1  0  0  0  0
  7  9  1  0  0  0  0
  6  7  1  0  0  0  0
  5  6  1  0  0  0  0
  4  5  1  0  0  0  0
  2  4  1  0  0  0  0
  1  2  2  0  0  0  0
  3  2  1  0  0  0  0
 21  3  1  0  0  0  0
 22  3  1  0  0  0  0
 23  4  1  0  0  0  0
 24  5  1  0  0  0  0
 25  5  1  0  0  0  0
 26  6  1  0  0  0  0
 27  6  1  0  0  0  0
 28  7  1  0  0  0  0
 29  7  1  0  0  0  0
  8  4  1  0  0  0  0
 30  8  1  0  0  0  0
 31  8  1  0  0  0  0
 11 10  2  0  0  0  0
 12 10  1  0  0  0  0
 32 12  1  0  0  0  0
 33 12  1  0  0  0  0
 13 12  1  0  0  0  0
 14 13  1  0  0  0  0
 20 14  2  0  0  0  0
 15 14  1  0  0  0  0
 34 15  1  0  0  0  0
 35 15  1  0  0  0  0
 16 15  1  0  0  0  0
 36 16  1  0  0  0  0
 37 16  1  0  0  0  0
 38 16  1  0  0  0  0
 17 13  2  0  0  0  0
 39 17  1  0  0  0  0
 18 17  1  0  0  0  0
 40 18  1  0  0  0  0
 19 18  2  0  0  0  0
 41 19  1  0  0  0  0
 42 20  1  0  0  0  0
  9  8  1  0  0  0  0
 20 19  1  0  0  0  0
M  END
>  <FittedScore>
-33.01

$$$$
