A71EV2A-x4541b_lowest-energy
  FITTED

 32 33     0  0  0  0  0  0  0999 V2000
    9.4475   10.3094   23.8329 CL   0  0  0  0  0  0  0  0  0  0  0  0
    8.1643   10.7239   24.9150 C    0  0  0  0  0  0  0  0  0  0  0  0
    7.0257    9.5174   25.4799 S    0  0  0  0  0  0  0  0  0  0  0  0
    6.1893   10.5414   26.4828 N    0  0  0  0  0  0  0  0  0  0  0  0
    6.7709   11.8789   26.2980 C    0  0  0  0  0  0  0  0  0  0  0  0
    7.8651   11.9717   25.4432 C    0  0  0  0  0  0  0  0  0  0  0  0
    8.5877   13.2908   25.1130 C    0  0  0  0  0  0  0  0  0  0  0  0
    8.1634   14.2415   25.9626 F    0  0  0  0  0  0  0  0  0  0  0  0
    9.8993   13.1396   25.3857 F    0  0  0  0  0  0  0  0  0  0  0  0
    8.3804   13.7866   23.6659 C    0  0  0  0  0  0  0  0  0  0  0  0
    7.5617   13.2255   22.9474 O    0  0  0  0  0  0  0  0  0  0  0  0
    9.1205   14.8602   23.1925 N    0  0  0  0  0  0  0  0  0  0  0  0
    9.9713   15.8244   23.9894 C    0  0  0  0  0  0  0  0  0  0  0  0
   11.4363   15.9109   23.4938 C    0  0  0  0  0  0  0  0  0  0  0  0
   11.4859   16.3123   21.9990 C    0  0  0  0  0  0  0  0  0  0  0  0
    9.1154   15.2665   21.7581 C    0  0  0  0  0  0  0  0  0  0  0  0
   10.5545   15.3792   21.1666 C    0  0  0  0  0  0  0  0  0  0  0  0
   10.4808   15.8444   19.7313 C    0  0  0  0  0  0  0  0  0  0  0  0
    9.9195   16.8705   19.4026 O    0  0  0  0  0  0  0  0  0  0  0  0
   10.7980   14.9136   18.8150 N    0  0  0  0  0  0  0  0  0  0  0  0
    6.3254   12.7227   26.8200 H    0  0  0  0  0  0  0  0  0  0  0  0
    9.5151   16.8186   23.9321 H    0  0  0  0  0  0  0  0  0  0  0  0
   10.0112   15.6265   25.0550 H    0  0  0  0  0  0  0  0  0  0  0  0
   11.9822   16.6427   24.0926 H    0  0  0  0  0  0  0  0  0  0  0  0
   11.9333   14.9460   23.6395 H    0  0  0  0  0  0  0  0  0  0  0  0
   11.1927   17.3624   21.8900 H    0  0  0  0  0  0  0  0  0  0  0  0
   12.5135   16.2333   21.6306 H    0  0  0  0  0  0  0  0  0  0  0  0
    8.5765   16.2164   21.6723 H    0  0  0  0  0  0  0  0  0  0  0  0
    8.5611   14.5702   21.1231 H    0  0  0  0  0  0  0  0  0  0  0  0
   10.9929   14.3754   21.2078 H    0  0  0  0  0  0  0  0  0  0  0  0
   10.9624   13.9405   19.0803 H    0  0  0  0  0  0  0  0  0  0  0  0
   10.7746   15.1740   17.8403 H    0  0  0  0  0  0  0  0  0  0  0  0
 10 12  1  0  0  0  0
  7 10  1  0  0  0  0
  6  7  1  0  0  0  0
  5  6  1  0  0  0  0
  4  5  2  0  0  0  0
  3  4  1  0  0  0  0
  2  3  1  0  0  0  0
  1  2  1  0  0  0  0
 21  5  1  0  0  0  0
  8  7  1  0  0  0  0
  9  7  1  0  0  0  0
 11 10  2  0  0  0  0
 13 12  1  0  0  0  0
 22 13  1  0  0  0  0
 23 13  1  0  0  0  0
 14 13  1  0  0  0  0
 24 14  1  0  0  0  0
 25 14  1  0  0  0  0
 15 14  1  0  0  0  0
 26 15  1  0  0  0  0
 27 15  1  0  0  0  0
 16 12  1  0  0  0  0
 28 16  1  0  0  0  0
 29 16  1  0  0  0  0
 17 15  1  0  0  0  0
 18 17  1  0  0  0  0
 30 17  1  0  0  0  0
 19 18  2  0  0  0  0
 20 18  1  0  0  0  0
 31 20  1  0  0  0  0
 32 20  1  0  0  0  0
  6  2  2  0  0  0  0
 17 16  1  0  0  0  0
M  END
>  <FittedScore>
-30.77

$$$$
