A71EV2A-x4541b_best-RMSD
  FITTED

 32 33     0  0  0  0  0  0  0999 V2000
    9.5141   10.2499   23.7664 CL   0  0  0  0  0  0  0  0  0  0  0  0
    8.2136   10.6498   24.8358 C    0  0  0  0  0  0  0  0  0  0  0  0
    7.0783    9.4300   25.3716 S    0  0  0  0  0  0  0  0  0  0  0  0
    6.2648   10.4167   26.4247 N    0  0  0  0  0  0  0  0  0  0  0  0
    6.8339   11.7649   26.2590 C    0  0  0  0  0  0  0  0  0  0  0  0
    7.9084   11.8841   25.3850 C    0  0  0  0  0  0  0  0  0  0  0  0
    8.6197   13.2090   25.0624 C    0  0  0  0  0  0  0  0  0  0  0  0
    8.1862   14.1666   25.9028 F    0  0  0  0  0  0  0  0  0  0  0  0
    9.9294   13.0612   25.3345 F    0  0  0  0  0  0  0  0  0  0  0  0
    8.4109   13.7143   23.6190 C    0  0  0  0  0  0  0  0  0  0  0  0
    7.5886   13.1619   22.8951 O    0  0  0  0  0  0  0  0  0  0  0  0
    9.1436   14.8014   23.1606 N    0  0  0  0  0  0  0  0  0  0  0  0
   10.0062   15.7606   23.9585 C    0  0  0  0  0  0  0  0  0  0  0  0
   11.4760   15.8112   23.4675 C    0  0  0  0  0  0  0  0  0  0  0  0
   11.5468   16.1676   21.9626 C    0  0  0  0  0  0  0  0  0  0  0  0
    9.1396   15.2191   21.7324 C    0  0  0  0  0  0  0  0  0  0  0  0
   10.5743   15.2764   21.1368 C    0  0  0  0  0  0  0  0  0  0  0  0
   10.4968   15.7483   19.6998 C    0  0  0  0  0  0  0  0  0  0  0  0
    9.9729   16.8006   19.3808 O    0  0  0  0  0  0  0  0  0  0  0  0
   10.8282   14.8265   18.7803 N    0  0  0  0  0  0  0  0  0  0  0  0
    6.3956   12.5874   26.8181 H    0  0  0  0  0  0  0  0  0  0  0  0
    9.5691   16.7633   23.8938 H    0  0  0  0  0  0  0  0  0  0  0  0
   10.0337   15.5635   25.0230 H    0  0  0  0  0  0  0  0  0  0  0  0
   12.0182   16.5606   24.0460 H    0  0  0  0  0  0  0  0  0  0  0  0
   11.9671   14.8511   23.6606 H    0  0  0  0  0  0  0  0  0  0  0  0
   11.3140   17.2276   21.8311 H    0  0  0  0  0  0  0  0  0  0  0  0
   12.5759   16.0203   21.6126 H    0  0  0  0  0  0  0  0  0  0  0  0
    8.6571   16.1990   21.6679 H    0  0  0  0  0  0  0  0  0  0  0  0
    8.5338   14.5706   21.0887 H    0  0  0  0  0  0  0  0  0  0  0  0
   10.9790   14.2570   21.1744 H    0  0  0  0  0  0  0  0  0  0  0  0
   11.0358   13.8586   19.0440 H    0  0  0  0  0  0  0  0  0  0  0  0
   10.8101   15.0666   17.7992 H    0  0  0  0  0  0  0  0  0  0  0  0
 10 12  1  0  0  0  0
  7 10  1  0  0  0  0
  6  7  1  0  0  0  0
  5  6  1  0  0  0  0
  4  5  2  0  0  0  0
  3  4  1  0  0  0  0
  2  3  1  0  0  0  0
  1  2  1  0  0  0  0
 21  5  1  0  0  0  0
  8  7  1  0  0  0  0
  9  7  1  0  0  0  0
 11 10  2  0  0  0  0
 13 12  1  0  0  0  0
 22 13  1  0  0  0  0
 23 13  1  0  0  0  0
 14 13  1  0  0  0  0
 24 14  1  0  0  0  0
 25 14  1  0  0  0  0
 15 14  1  0  0  0  0
 26 15  1  0  0  0  0
 27 15  1  0  0  0  0
 16 12  1  0  0  0  0
 28 16  1  0  0  0  0
 29 16  1  0  0  0  0
 17 15  1  0  0  0  0
 18 17  1  0  0  0  0
 30 17  1  0  0  0  0
 19 18  2  0  0  0  0
 20 18  1  0  0  0  0
 31 20  1  0  0  0  0
 32 20  1  0  0  0  0
  6  2  2  0  0  0  0
 17 16  1  0  0  0  0
M  END
>  <FittedScore>
-29.65

$$$$
