A71EV2A-x4214a_best-RMSD
  FITTED

 38 39     0  0  0  0  0  0  0999 V2000
    9.3457   16.5127   19.4913 O    0  0  0  0  0  0  0  0  0  0  0  0
    9.8624   15.4701   19.8474 C    0  0  0  0  0  0  0  0  0  0  0  0
   10.3543   14.6216   18.9282 N    0  0  0  0  0  0  0  0  0  0  0  0
   10.1415   15.0655   21.2956 C    0  0  0  0  0  0  0  0  0  0  0  0
   11.4975   15.6779   21.7475 C    0  0  0  0  0  0  0  0  0  0  0  0
   11.8188   15.2607   23.1954 C    0  0  0  0  0  0  0  0  0  0  0  0
   10.6818   15.6197   24.1708 C    0  0  0  0  0  0  0  0  0  0  0  0
    8.9861   15.3941   22.2959 C    0  0  0  0  0  0  0  0  0  0  0  0
    9.3801   15.0904   23.6970 N    0  0  0  0  0  0  0  0  0  0  0  0
    8.3167   14.3408   24.8015 S    0  0  0  0  0  0  0  0  0  0  0  0
    6.9801   14.7959   24.5338 O    0  0  0  0  0  0  0  0  0  0  0  0
    8.8082   14.5401   26.1379 O    0  0  0  0  0  0  0  0  0  0  0  0
    8.3103   12.5717   24.6394 C    0  0  0  0  0  0  0  0  0  0  0  0
    7.3833   11.7911   25.3728 C    0  0  0  0  0  0  0  0  0  0  0  0
    6.4624   12.4393   26.1954 O    0  0  0  0  0  0  0  0  0  0  0  0
    5.3948   11.8343   26.9554 C    0  0  0  0  0  0  0  0  0  0  0  0
    9.2696   11.9367   23.8250 C    0  0  0  0  0  0  0  0  0  0  0  0
    9.2943   10.5438   23.7169 C    0  0  0  0  0  0  0  0  0  0  0  0
    8.3717    9.7732   24.4279 C    0  0  0  0  0  0  0  0  0  0  0  0
    7.4270   10.3858   25.2591 C    0  0  0  0  0  0  0  0  0  0  0  0
   10.7202   13.7126   19.2009 H    0  0  0  0  0  0  0  0  0  0  0  0
   10.3534   14.8745   17.9520 H    0  0  0  0  0  0  0  0  0  0  0  0
   10.2491   13.9748   21.3278 H    0  0  0  0  0  0  0  0  0  0  0  0
   12.3044   15.3330   21.0937 H    0  0  0  0  0  0  0  0  0  0  0  0
   11.4700   16.7696   21.6722 H    0  0  0  0  0  0  0  0  0  0  0  0
   12.0121   14.1848   23.2324 H    0  0  0  0  0  0  0  0  0  0  0  0
   12.7419   15.7521   23.5140 H    0  0  0  0  0  0  0  0  0  0  0  0
   10.9844   15.2144   25.1369 H    0  0  0  0  0  0  0  0  0  0  0  0
   10.6295   16.7040   24.2973 H    0  0  0  0  0  0  0  0  0  0  0  0
    8.1020   14.8215   21.9965 H    0  0  0  0  0  0  0  0  0  0  0  0
    8.7024   16.4477   22.2147 H    0  0  0  0  0  0  0  0  0  0  0  0
    4.7058   11.3215   26.2814 H    0  0  0  0  0  0  0  0  0  0  0  0
    4.8576   12.6302   27.4731 H    0  0  0  0  0  0  0  0  0  0  0  0
    5.7997   11.1399   27.6931 H    0  0  0  0  0  0  0  0  0  0  0  0
   10.0145   12.5052   23.2798 H    0  0  0  0  0  0  0  0  0  0  0  0
   10.0311   10.0603   23.0807 H    0  0  0  0  0  0  0  0  0  0  0  0
    8.3896    8.6902   24.3418 H    0  0  0  0  0  0  0  0  0  0  0  0
    6.7341    9.7503   25.8043 H    0  0  0  0  0  0  0  0  0  0  0  0
  7  9  1  0  0  0  0
  6  7  1  0  0  0  0
  5  6  1  0  0  0  0
  4  5  1  0  0  0  0
  2  4  1  0  0  0  0
  1  2  2  0  0  0  0
  3  2  1  0  0  0  0
 21  3  1  0  0  0  0
 22  3  1  0  0  0  0
 23  4  1  0  0  0  0
 24  5  1  0  0  0  0
 25  5  1  0  0  0  0
 26  6  1  0  0  0  0
 27  6  1  0  0  0  0
 28  7  1  0  0  0  0
 29  7  1  0  0  0  0
  8  4  1  0  0  0  0
 30  8  1  0  0  0  0
 31  8  1  0  0  0  0
 10  9  1  0  0  0  0
 11 10  2  0  0  0  0
 12 10  2  0  0  0  0
 13 10  1  0  0  0  0
 14 13  1  0  0  0  0
 20 14  2  0  0  0  0
 15 14  1  0  0  0  0
 16 15  1  0  0  0  0
 32 16  1  0  0  0  0
 33 16  1  0  0  0  0
 34 16  1  0  0  0  0
 17 13  2  0  0  0  0
 35 17  1  0  0  0  0
 18 17  1  0  0  0  0
 36 18  1  0  0  0  0
 19 18  2  0  0  0  0
 37 19  1  0  0  0  0
 38 20  1  0  0  0  0
  9  8  1  0  0  0  0
 20 19  1  0  0  0  0
M  END
>  <FittedScore>
-32.03

$$$$
