A71EV2A-x4214a_lowest-energy
  FITTED

 38 39     0  0  0  0  0  0  0999 V2000
    9.3930   16.5481   19.4465 O    0  0  0  0  0  0  0  0  0  0  0  0
    9.9075   15.5059   19.8129 C    0  0  0  0  0  0  0  0  0  0  0  0
   10.4058   14.6428   18.9059 N    0  0  0  0  0  0  0  0  0  0  0  0
   10.1725   15.1243   21.2695 C    0  0  0  0  0  0  0  0  0  0  0  0
   11.4308   15.8837   21.7699 C    0  0  0  0  0  0  0  0  0  0  0  0
   11.7734   15.4467   23.2054 C    0  0  0  0  0  0  0  0  0  0  0  0
   10.5916   15.6671   24.1740 C    0  0  0  0  0  0  0  0  0  0  0  0
    8.9595   15.3296   22.2382 C    0  0  0  0  0  0  0  0  0  0  0  0
    9.3350   15.0696   23.6582 N    0  0  0  0  0  0  0  0  0  0  0  0
    8.2852   14.2704   24.7427 S    0  0  0  0  0  0  0  0  0  0  0  0
    6.9344   14.6661   24.4523 O    0  0  0  0  0  0  0  0  0  0  0  0
    8.7414   14.4698   26.0921 O    0  0  0  0  0  0  0  0  0  0  0  0
    8.3607   12.5070   24.5596 C    0  0  0  0  0  0  0  0  0  0  0  0
    7.4991   11.6707   25.3118 C    0  0  0  0  0  0  0  0  0  0  0  0
    6.6085   12.2365   26.2214 O    0  0  0  0  0  0  0  0  0  0  0  0
    5.6279   11.5074   26.9903 C    0  0  0  0  0  0  0  0  0  0  0  0
    9.3222   11.9288   23.7074 C    0  0  0  0  0  0  0  0  0  0  0  0
    9.4070   10.5393   23.5783 C    0  0  0  0  0  0  0  0  0  0  0  0
    8.5323    9.7181   24.2885 C    0  0  0  0  0  0  0  0  0  0  0  0
    7.5877   10.2732   25.1553 C    0  0  0  0  0  0  0  0  0  0  0  0
   10.4221   14.8935   17.9289 H    0  0  0  0  0  0  0  0  0  0  0  0
   10.7346   13.7194   19.1860 H    0  0  0  0  0  0  0  0  0  0  0  0
   10.4001   14.0513   21.3055 H    0  0  0  0  0  0  0  0  0  0  0  0
   12.2859   15.6801   21.1193 H    0  0  0  0  0  0  0  0  0  0  0  0
   11.2557   16.9645   21.7423 H    0  0  0  0  0  0  0  0  0  0  0  0
   12.0630   14.3919   23.2162 H    0  0  0  0  0  0  0  0  0  0  0  0
   12.6389   16.0151   23.5574 H    0  0  0  0  0  0  0  0  0  0  0  0
   10.9088   15.2353   25.1249 H    0  0  0  0  0  0  0  0  0  0  0  0
   10.4527   16.7367   24.3604 H    0  0  0  0  0  0  0  0  0  0  0  0
    8.1511   14.6686   21.9135 H    0  0  0  0  0  0  0  0  0  0  0  0
    8.5669   16.3455   22.1444 H    0  0  0  0  0  0  0  0  0  0  0  0
    5.0819   12.1945   27.6389 H    0  0  0  0  0  0  0  0  0  0  0  0
    6.1243   10.7611   27.6147 H    0  0  0  0  0  0  0  0  0  0  0  0
    4.9276   11.0293   26.3033 H    0  0  0  0  0  0  0  0  0  0  0  0
   10.0271   12.5333   23.1493 H    0  0  0  0  0  0  0  0  0  0  0  0
   10.1581   10.0970   22.9325 H    0  0  0  0  0  0  0  0  0  0  0  0
    8.5955    8.6388   24.1797 H    0  0  0  0  0  0  0  0  0  0  0  0
    6.9439    9.5986   25.7110 H    0  0  0  0  0  0  0  0  0  0  0  0
  7  9  1  0  0  0  0
  6  7  1  0  0  0  0
  5  6  1  0  0  0  0
  4  5  1  0  0  0  0
  2  4  1  0  0  0  0
  1  2  2  0  0  0  0
  3  2  1  0  0  0  0
 21  3  1  0  0  0  0
 22  3  1  0  0  0  0
 23  4  1  0  0  0  0
 24  5  1  0  0  0  0
 25  5  1  0  0  0  0
 26  6  1  0  0  0  0
 27  6  1  0  0  0  0
 28  7  1  0  0  0  0
 29  7  1  0  0  0  0
  8  4  1  0  0  0  0
 30  8  1  0  0  0  0
 31  8  1  0  0  0  0
 10  9  1  0  0  0  0
 11 10  2  0  0  0  0
 12 10  2  0  0  0  0
 13 10  1  0  0  0  0
 14 13  1  0  0  0  0
 20 14  2  0  0  0  0
 15 14  1  0  0  0  0
 16 15  1  0  0  0  0
 32 16  1  0  0  0  0
 33 16  1  0  0  0  0
 34 16  1  0  0  0  0
 17 13  2  0  0  0  0
 35 17  1  0  0  0  0
 18 17  1  0  0  0  0
 36 18  1  0  0  0  0
 19 18  2  0  0  0  0
 37 19  1  0  0  0  0
 38 20  1  0  0  0  0
  9  8  1  0  0  0  0
 20 19  1  0  0  0  0
M  END
>  <FittedScore>
-33.15

$$$$
