A71EV2A-x5687a_best-RMSD
  FITTED

 44 46     0  0  0  0  0  0  0999 V2000
    9.7155   16.6184   18.8823 O    0  0  0  0  0  0  0  0  0  0  0  0
   10.2735   15.6693   19.4017 C    0  0  0  0  0  0  0  0  0  0  0  0
   10.8356   14.7174   18.6349 N    0  0  0  0  0  0  0  0  0  0  0  0
   10.3305   15.4212   20.9069 C    0  0  0  0  0  0  0  0  0  0  0  0
   11.6196   16.0651   21.4822 C    0  0  0  0  0  0  0  0  0  0  0  0
   11.7042   15.8571   23.0104 C    0  0  0  0  0  0  0  0  0  0  0  0
   10.4083   16.3027   23.7357 C    0  0  0  0  0  0  0  0  0  0  0  0
    9.0893   15.9724   21.6672 C    0  0  0  0  0  0  0  0  0  0  0  0
    9.1450   15.7543   23.1447 N    0  0  0  0  0  0  0  0  0  0  0  0
    8.0843   15.3454   23.9197 C    0  0  0  0  0  0  0  0  0  0  0  0
    7.9839   15.7398   25.0710 O    0  0  0  0  0  0  0  0  0  0  0  0
    7.0440   14.3464   23.3564 C    0  0  0  0  0  0  0  0  0  0  0  0
    6.9156   13.1218   24.2488 C    0  0  0  0  0  0  0  0  0  0  0  0
    7.7976   12.0346   24.3789 C    0  0  0  0  0  0  0  0  0  0  0  0
    9.2884   11.9595   23.4238 S    0  0  0  0  0  0  0  0  0  0  0  0
   10.4851   12.5768   24.6450 C    0  0  0  0  0  0  0  0  0  0  0  0
    5.6110   14.9561   23.3458 C    0  0  0  0  0  0  0  0  0  0  0  0
    4.9126   14.3717   24.6034 C    0  0  0  0  0  0  0  0  0  0  0  0
    5.7367   13.1630   24.9791 C    0  0  0  0  0  0  0  0  0  0  0  0
    5.4172   12.1514   25.8977 C    0  0  0  0  0  0  0  0  0  0  0  0
    6.2991   11.0656   26.0498 C    0  0  0  0  0  0  0  0  0  0  0  0
    7.4811   11.0035   25.2855 C    0  0  0  0  0  0  0  0  0  0  0  0
   10.8399   14.8388   17.6301 H    0  0  0  0  0  0  0  0  0  0  0  0
   11.1353   13.8247   19.0233 H    0  0  0  0  0  0  0  0  0  0  0  0
   10.3610   14.3390   21.0888 H    0  0  0  0  0  0  0  0  0  0  0  0
   12.5002   15.6182   21.0139 H    0  0  0  0  0  0  0  0  0  0  0  0
   11.6418   17.1371   21.2552 H    0  0  0  0  0  0  0  0  0  0  0  0
   11.9142   14.8085   23.2215 H    0  0  0  0  0  0  0  0  0  0  0  0
   12.5459   16.4330   23.4033 H    0  0  0  0  0  0  0  0  0  0  0  0
   10.5181   16.0012   24.7803 H    0  0  0  0  0  0  0  0  0  0  0  0
   10.3494   17.3962   23.7474 H    0  0  0  0  0  0  0  0  0  0  0  0
    8.1848   15.5841   21.2023 H    0  0  0  0  0  0  0  0  0  0  0  0
    9.0185   17.0548   21.5049 H    0  0  0  0  0  0  0  0  0  0  0  0
    7.2836   13.9800   22.3572 H    0  0  0  0  0  0  0  0  0  0  0  0
   10.5297   11.8937   25.4985 H    0  0  0  0  0  0  0  0  0  0  0  0
   10.1965   13.5635   25.0044 H    0  0  0  0  0  0  0  0  0  0  0  0
   11.4730   12.6277   24.1847 H    0  0  0  0  0  0  0  0  0  0  0  0
    5.0825   14.6311   22.4457 H    0  0  0  0  0  0  0  0  0  0  0  0
    5.6132   16.0498   23.3572 H    0  0  0  0  0  0  0  0  0  0  0  0
    3.8788   14.0902   24.3874 H    0  0  0  0  0  0  0  0  0  0  0  0
    4.9198   15.0995   25.4199 H    0  0  0  0  0  0  0  0  0  0  0  0
    4.5026   12.2034   26.4818 H    0  0  0  0  0  0  0  0  0  0  0  0
    6.0662   10.2704   26.7555 H    0  0  0  0  0  0  0  0  0  0  0  0
    8.1477   10.1532   25.4055 H    0  0  0  0  0  0  0  0  0  0  0  0
  9 10  1  0  0  0  0
  7  9  1  0  0  0  0
  6  7  1  0  0  0  0
  5  6  1  0  0  0  0
  4  5  1  0  0  0  0
  2  4  1  0  0  0  0
  1  2  2  0  0  0  0
  3  2  1  0  0  0  0
 23  3  1  0  0  0  0
 24  3  1  0  0  0  0
 25  4  1  0  0  0  0
 26  5  1  0  0  0  0
 27  5  1  0  0  0  0
 28  6  1  0  0  0  0
 29  6  1  0  0  0  0
 30  7  1  0  0  0  0
 31  7  1  0  0  0  0
  8  4  1  0  0  0  0
 32  8  1  0  0  0  0
 33  8  1  0  0  0  0
 11 10  2  0  0  0  0
 12 10  1  0  0  0  0
 34 12  1  0  0  0  0
 13 12  1  0  0  0  0
 14 13  1  0  0  0  0
 22 14  2  0  0  0  0
 15 14  1  0  0  0  0
 16 15  1  0  0  0  0
 35 16  1  0  0  0  0
 36 16  1  0  0  0  0
 37 16  1  0  0  0  0
 17 12  1  0  0  0  0
 38 17  1  0  0  0  0
 39 17  1  0  0  0  0
 18 17  1  0  0  0  0
 40 18  1  0  0  0  0
 41 18  1  0  0  0  0
 19 13  2  0  0  0  0
 20 19  1  0  0  0  0
 42 20  1  0  0  0  0
 21 20  2  0  0  0  0
 43 21  1  0  0  0  0
 44 22  1  0  0  0  0
  9  8  1  0  0  0  0
 19 18  1  0  0  0  0
 22 21  1  0  0  0  0
M  END
>  <FittedScore>
-24.83

$$$$
