A71EV2A-x5687a_lowest-energy
  FITTED

 44 46     0  0  0  0  0  0  0999 V2000
    9.9826   16.8782   19.2700 O    0  0  0  0  0  0  0  0  0  0  0  0
   10.3784   15.7865   19.6370 C    0  0  0  0  0  0  0  0  0  0  0  0
   10.7966   14.8685   18.7442 N    0  0  0  0  0  0  0  0  0  0  0  0
   10.3156   15.2858   21.0864 C    0  0  0  0  0  0  0  0  0  0  0  0
   11.2896   16.0844   22.0050 C    0  0  0  0  0  0  0  0  0  0  0  0
   11.1866   15.5886   23.4719 C    0  0  0  0  0  0  0  0  0  0  0  0
    9.7073   15.5250   23.9504 C    0  0  0  0  0  0  0  0  0  0  0  0
    8.8611   15.2848   21.6670 C    0  0  0  0  0  0  0  0  0  0  0  0
    8.8153   14.7178   23.0524 N    0  0  0  0  0  0  0  0  0  0  0  0
    8.0912   13.5867   23.3834 C    0  0  0  0  0  0  0  0  0  0  0  0
    7.2522   13.1227   22.6250 O    0  0  0  0  0  0  0  0  0  0  0  0
    8.5786   12.7118   24.5588 C    0  0  0  0  0  0  0  0  0  0  0  0
    7.5240   11.7683   25.1078 C    0  0  0  0  0  0  0  0  0  0  0  0
    6.4055   12.0686   25.9150 C    0  0  0  0  0  0  0  0  0  0  0  0
    5.9506   13.7344   26.3320 S    0  0  0  0  0  0  0  0  0  0  0  0
    4.5871   14.0636   25.1617 C    0  0  0  0  0  0  0  0  0  0  0  0
    9.7393   11.7777   24.0940 C    0  0  0  0  0  0  0  0  0  0  0  0
    9.1260   10.3609   24.0043 C    0  0  0  0  0  0  0  0  0  0  0  0
    7.8405   10.4512   24.8056 C    0  0  0  0  0  0  0  0  0  0  0  0
    7.0620    9.3953   25.2913 C    0  0  0  0  0  0  0  0  0  0  0  0
    5.9639    9.6801   26.1178 C    0  0  0  0  0  0  0  0  0  0  0  0
    5.6336   11.0107   26.4275 C    0  0  0  0  0  0  0  0  0  0  0  0
   10.9725   13.9131   19.0524 H    0  0  0  0  0  0  0  0  0  0  0  0
   10.7477   15.0645   17.7477 H    0  0  0  0  0  0  0  0  0  0  0  0
   10.6607   14.2408   21.1242 H    0  0  0  0  0  0  0  0  0  0  0  0
   12.3149   15.9596   21.6500 H    0  0  0  0  0  0  0  0  0  0  0  0
   11.0684   17.1549   21.9587 H    0  0  0  0  0  0  0  0  0  0  0  0
   11.6469   14.5999   23.5569 H    0  0  0  0  0  0  0  0  0  0  0  0
   11.7529   16.2584   24.1208 H    0  0  0  0  0  0  0  0  0  0  0  0
    9.6897   15.2047   24.9918 H    0  0  0  0  0  0  0  0  0  0  0  0
    9.3121   16.5460   23.9905 H    0  0  0  0  0  0  0  0  0  0  0  0
    8.2180   14.7424   20.9704 H    0  0  0  0  0  0  0  0  0  0  0  0
    8.4602   16.3035   21.6831 H    0  0  0  0  0  0  0  0  0  0  0  0
    8.9110   13.2935   25.4173 H    0  0  0  0  0  0  0  0  0  0  0  0
    4.9763   14.0935   24.1424 H    0  0  0  0  0  0  0  0  0  0  0  0
    4.1326   15.0292   25.3898 H    0  0  0  0  0  0  0  0  0  0  0  0
    3.8221   13.2884   25.2400 H    0  0  0  0  0  0  0  0  0  0  0  0
   10.5465   11.7906   24.8335 H    0  0  0  0  0  0  0  0  0  0  0  0
   10.1761   12.0719   23.1340 H    0  0  0  0  0  0  0  0  0  0  0  0
    9.8002    9.6120   24.4271 H    0  0  0  0  0  0  0  0  0  0  0  0
    8.9134   10.0986   22.9662 H    0  0  0  0  0  0  0  0  0  0  0  0
    7.3301    8.3657   25.0594 H    0  0  0  0  0  0  0  0  0  0  0  0
    5.3672    8.8686   26.5240 H    0  0  0  0  0  0  0  0  0  0  0  0
    4.7832   11.2168   27.0711 H    0  0  0  0  0  0  0  0  0  0  0  0
  9 10  1  0  0  0  0
  7  9  1  0  0  0  0
  6  7  1  0  0  0  0
  5  6  1  0  0  0  0
  4  5  1  0  0  0  0
  2  4  1  0  0  0  0
  1  2  2  0  0  0  0
  3  2  1  0  0  0  0
 23  3  1  0  0  0  0
 24  3  1  0  0  0  0
 25  4  1  0  0  0  0
 26  5  1  0  0  0  0
 27  5  1  0  0  0  0
 28  6  1  0  0  0  0
 29  6  1  0  0  0  0
 30  7  1  0  0  0  0
 31  7  1  0  0  0  0
  8  4  1  0  0  0  0
 32  8  1  0  0  0  0
 33  8  1  0  0  0  0
 11 10  2  0  0  0  0
 12 10  1  0  0  0  0
 34 12  1  0  0  0  0
 13 12  1  0  0  0  0
 14 13  1  0  0  0  0
 22 14  2  0  0  0  0
 15 14  1  0  0  0  0
 16 15  1  0  0  0  0
 35 16  1  0  0  0  0
 36 16  1  0  0  0  0
 37 16  1  0  0  0  0
 17 12  1  0  0  0  0
 38 17  1  0  0  0  0
 39 17  1  0  0  0  0
 18 17  1  0  0  0  0
 40 18  1  0  0  0  0
 41 18  1  0  0  0  0
 19 13  2  0  0  0  0
 20 19  1  0  0  0  0
 42 20  1  0  0  0  0
 21 20  2  0  0  0  0
 43 21  1  0  0  0  0
 44 22  1  0  0  0  0
  9  8  1  0  0  0  0
 19 18  1  0  0  0  0
 22 21  1  0  0  0  0
M  END
>  <FittedScore>
-28.33

$$$$
