A71EV2A-x4012a_lowest-energy
  FITTED

 39 40     0  0  0  0  0  0  0999 V2000
    9.7936   16.8776   19.3809 O    0  0  0  0  0  0  0  0  0  0  0  0
   10.2439   15.8027   19.7324 C    0  0  0  0  0  0  0  0  0  0  0  0
   10.7034   14.9070   18.8365 N    0  0  0  0  0  0  0  0  0  0  0  0
   10.1897   15.3167   21.1794 C    0  0  0  0  0  0  0  0  0  0  0  0
   11.1287   16.1400   22.1035 C    0  0  0  0  0  0  0  0  0  0  0  0
   11.0265   15.6315   23.5680 C    0  0  0  0  0  0  0  0  0  0  0  0
    9.5531   15.5036   24.0545 C    0  0  0  0  0  0  0  0  0  0  0  0
    8.7312   15.3034   21.7322 C    0  0  0  0  0  0  0  0  0  0  0  0
    8.6530   14.7376   23.1217 N    0  0  0  0  0  0  0  0  0  0  0  0
    7.8453   13.6672   23.4344 C    0  0  0  0  0  0  0  0  0  0  0  0
    7.1363   13.1194   22.6063 O    0  0  0  0  0  0  0  0  0  0  0  0
    7.7811   13.2893   24.7407 N    0  0  0  0  0  0  0  0  0  0  0  0
    7.1121   12.1386   25.2806 C    0  0  0  0  0  0  0  0  0  0  0  0
    7.4564   10.8186   24.8944 C    0  0  0  0  0  0  0  0  0  0  0  0
    8.5464   10.6324   24.0394 O    0  0  0  0  0  0  0  0  0  0  0  0
    9.0082    9.3664   23.5167 C    0  0  0  0  0  0  0  0  0  0  0  0
    6.0895   12.3575   26.2203 C    0  0  0  0  0  0  0  0  0  0  0  0
    5.3765   11.2746   26.7506 C    0  0  0  0  0  0  0  0  0  0  0  0
    5.6795    9.9691   26.3421 C    0  0  0  0  0  0  0  0  0  0  0  0
    6.7056    9.7428   25.4176 C    0  0  0  0  0  0  0  0  0  0  0  0
   10.9164   13.9564   19.1240 H    0  0  0  0  0  0  0  0  0  0  0  0
   10.7374   15.1525   17.8533 H    0  0  0  0  0  0  0  0  0  0  0  0
   10.5389   14.2782   21.2236 H    0  0  0  0  0  0  0  0  0  0  0  0
   12.1608   16.0419   21.7610 H    0  0  0  0  0  0  0  0  0  0  0  0
   10.8781   17.2055   22.0631 H    0  0  0  0  0  0  0  0  0  0  0  0
   11.5203   14.6581   23.6504 H    0  0  0  0  0  0  0  0  0  0  0  0
   11.5685   16.3127   24.2286 H    0  0  0  0  0  0  0  0  0  0  0  0
    9.5961   15.0665   25.0538 H    0  0  0  0  0  0  0  0  0  0  0  0
    9.1306   16.5021   24.1985 H    0  0  0  0  0  0  0  0  0  0  0  0
    8.1076   14.7609   21.0139 H    0  0  0  0  0  0  0  0  0  0  0  0
    8.3203   16.3195   21.7453 H    0  0  0  0  0  0  0  0  0  0  0  0
    8.0964   13.9418   25.4553 H    0  0  0  0  0  0  0  0  0  0  0  0
    9.8463    9.5643   22.8493 H    0  0  0  0  0  0  0  0  0  0  0  0
    9.3547    8.7212   24.3323 H    0  0  0  0  0  0  0  0  0  0  0  0
    8.2168    8.8571   22.9581 H    0  0  0  0  0  0  0  0  0  0  0  0
    5.8330   13.3667   26.5323 H    0  0  0  0  0  0  0  0  0  0  0  0
    4.5819   11.4449   27.4707 H    0  0  0  0  0  0  0  0  0  0  0  0
    5.1254    9.1260   26.7520 H    0  0  0  0  0  0  0  0  0  0  0  0
    6.9237    8.7152   25.1389 H    0  0  0  0  0  0  0  0  0  0  0  0
  9 10  1  0  0  0  0
  7  9  1  0  0  0  0
  6  7  1  0  0  0  0
  5  6  1  0  0  0  0
  4  5  1  0  0  0  0
  2  4  1  0  0  0  0
  1  2  2  0  0  0  0
  3  2  1  0  0  0  0
 21  3  1  0  0  0  0
 22  3  1  0  0  0  0
 23  4  1  0  0  0  0
 24  5  1  0  0  0  0
 25  5  1  0  0  0  0
 26  6  1  0  0  0  0
 27  6  1  0  0  0  0
 28  7  1  0  0  0  0
 29  7  1  0  0  0  0
  8  4  1  0  0  0  0
 30  8  1  0  0  0  0
 31  8  1  0  0  0  0
 11 10  2  0  0  0  0
 12 10  1  0  0  0  0
 32 12  1  0  0  0  0
 13 12  1  0  0  0  0
 14 13  1  0  0  0  0
 20 14  2  0  0  0  0
 15 14  1  0  0  0  0
 16 15  1  0  0  0  0
 33 16  1  0  0  0  0
 34 16  1  0  0  0  0
 35 16  1  0  0  0  0
 17 13  2  0  0  0  0
 36 17  1  0  0  0  0
 18 17  1  0  0  0  0
 37 18  1  0  0  0  0
 19 18  2  0  0  0  0
 38 19  1  0  0  0  0
 39 20  1  0  0  0  0
  9  8  1  0  0  0  0
 20 19  1  0  0  0  0
M  END
>  <FittedScore>
-36.78

$$$$
