A71EV2A-x3177a_lowest-energy
  FITTED

 33 35     0  0  0  0  0  0  0999 V2000
    8.6406   14.5726   24.4177 O    0  0  0  0  0  0  0  0  0  0  0  0
    9.3113   13.6931   23.9129 C    0  0  0  0  0  0  0  0  0  0  0  0
   10.3709   13.9263   23.0820 N    0  0  0  0  0  0  0  0  0  0  0  0
   10.7199   15.3253   22.6672 C    0  0  0  0  0  0  0  0  0  0  0  0
   10.3293   16.0169   21.3896 C    0  0  0  0  0  0  0  0  0  0  0  0
    9.5398   15.3577   20.2618 C    0  0  0  0  0  0  0  0  0  0  0  0
    9.8259   16.0363   19.0252 O    0  0  0  0  0  0  0  0  0  0  0  0
   11.7552   15.6226   21.6342 C    0  0  0  0  0  0  0  0  0  0  0  0
    8.9448   12.3273   24.1165 C    0  0  0  0  0  0  0  0  0  0  0  0
    9.4538   11.2931   23.5052 N    0  0  0  0  0  0  0  0  0  0  0  0
    7.8952   11.8172   25.0438 C    0  0  0  0  0  0  0  0  0  0  0  0
    7.8542   10.4530   24.8573 C    0  0  0  0  0  0  0  0  0  0  0  0
    8.8153   10.1647   23.9403 N    0  0  0  0  0  0  0  0  0  0  0  0
    9.1878    8.8433   23.4305 C    0  0  0  0  0  0  0  0  0  0  0  0
    6.9613    9.6311   25.5595 C    0  0  0  0  0  0  0  0  0  0  0  0
    6.1017   10.2371   26.4919 C    0  0  0  0  0  0  0  0  0  0  0  0
    6.1503   11.6297   26.7048 C    0  0  0  0  0  0  0  0  0  0  0  0
    7.0510   12.4353   25.9832 C    0  0  0  0  0  0  0  0  0  0  0  0
   10.8231   13.1338   22.6448 H    0  0  0  0  0  0  0  0  0  0  0  0
   10.7948   15.8053   23.6409 H    0  0  0  0  0  0  0  0  0  0  0  0
   10.0960   17.0752   21.4909 H    0  0  0  0  0  0  0  0  0  0  0  0
    8.4670   15.3959   20.4574 H    0  0  0  0  0  0  0  0  0  0  0  0
    9.7906   14.3004   20.1521 H    0  0  0  0  0  0  0  0  0  0  0  0
    9.5659   15.5036   18.2444 H    0  0  0  0  0  0  0  0  0  0  0  0
   12.1705   14.7856   21.0768 H    0  0  0  0  0  0  0  0  0  0  0  0
   12.4608   16.4263   21.8297 H    0  0  0  0  0  0  0  0  0  0  0  0
    8.5341    8.5226   22.6175 H    0  0  0  0  0  0  0  0  0  0  0  0
    9.1314    8.0858   24.2165 H    0  0  0  0  0  0  0  0  0  0  0  0
   10.2126    8.8308   23.0512 H    0  0  0  0  0  0  0  0  0  0  0  0
    6.9415    8.5545   25.4065 H    0  0  0  0  0  0  0  0  0  0  0  0
    5.4133    9.6181   27.0641 H    0  0  0  0  0  0  0  0  0  0  0  0
    5.4980   12.0815   27.4444 H    0  0  0  0  0  0  0  0  0  0  0  0
    7.0823   13.5035   26.1666 H    0  0  0  0  0  0  0  0  0  0  0  0
  2  9  1  0  0  0  0
  3  2  1  0  0  0  0
 19  3  1  0  0  0  0
  1  2  2  0  0  0  0
  4  3  1  0  0  0  0
  8  4  1  0  0  0  0
 20  4  1  0  0  0  0
  5  4  1  0  0  0  0
  6  5  1  0  0  0  0
 21  5  1  0  0  0  0
 22  6  1  0  0  0  0
 23  6  1  0  0  0  0
  7  6  1  0  0  0  0
 24  7  1  0  0  0  0
 25  8  1  0  0  0  0
 26  8  1  0  0  0  0
 10  9  2  0  0  0  0
 11  9  1  0  0  0  0
 18 11  2  0  0  0  0
 12 11  1  0  0  0  0
 13 10  1  0  0  0  0
 14 13  1  0  0  0  0
 27 14  1  0  0  0  0
 28 14  1  0  0  0  0
 29 14  1  0  0  0  0
 15 12  2  0  0  0  0
 30 15  1  0  0  0  0
 16 15  1  0  0  0  0
 31 16  1  0  0  0  0
 17 16  2  0  0  0  0
 32 17  1  0  0  0  0
 33 18  1  0  0  0  0
  8  5  1  0  0  0  0
 13 12  1  0  0  0  0
 18 17  1  0  0  0  0
M  END
>  <FittedScore>
-21.70

$$$$
