A71EV2A-x6028a_lowest-energy
  FITTED

 59 62     0  0  0  0  0  0  0999 V2000
    9.1368    8.2211   23.5446 C    0  0  0  0  0  0  0  0  0  0  0  0
    9.4382    9.9170   24.0750 S    0  0  0  0  0  0  0  0  0  0  0  0
    8.0284   10.5275   25.0183 C    0  0  0  0  0  0  0  0  0  0  0  0
    7.0630    9.6363   25.5322 C    0  0  0  0  0  0  0  0  0  0  0  0
    6.0339   10.0916   26.3633 C    0  0  0  0  0  0  0  0  0  0  0  0
    5.9409   11.4467   26.6870 C    0  0  0  0  0  0  0  0  0  0  0  0
    6.8586   12.3713   26.1607 C    0  0  0  0  0  0  0  0  0  0  0  0
    6.6591   13.8385   26.4544 C    0  0  0  0  0  0  0  0  0  0  0  0
    7.5804   14.4899   27.1662 C    0  0  0  0  0  0  0  0  0  0  0  0
    7.6557   15.9112   27.3181 N    0  0  0  0  0  0  0  0  0  0  0  0
    8.8750   16.5053   27.9373 C    0  0  0  0  0  0  0  0  0  0  0  0
    6.6700   16.7341   26.8070 C    0  0  0  0  0  0  0  0  0  0  0  0
    6.7166   17.9493   26.9170 O    0  0  0  0  0  0  0  0  0  0  0  0
    5.5389   16.0523   26.0470 C    0  0  0  0  0  0  0  0  0  0  0  0
    4.4845   16.8195   25.5046 C    0  0  0  0  0  0  0  0  0  0  0  0
    3.4547   16.2073   24.7801 C    0  0  0  0  0  0  0  0  0  0  0  0
    3.4703   14.8247   24.5710 C    0  0  0  0  0  0  0  0  0  0  0  0
    4.5052   14.0510   25.1038 C    0  0  0  0  0  0  0  0  0  0  0  0
    5.5353   14.6447   25.8641 C    0  0  0  0  0  0  0  0  0  0  0  0
    7.9066   11.9156   25.3014 C    0  0  0  0  0  0  0  0  0  0  0  0
    8.8504   12.9526   24.6413 C    0  0  0  0  0  0  0  0  0  0  0  0
    8.1087   13.9114   23.7076 C    0  0  0  0  0  0  0  0  0  0  0  0
    7.2011   13.4371   23.0455 O    0  0  0  0  0  0  0  0  0  0  0  0
    8.6606   15.1385   23.4106 N    0  0  0  0  0  0  0  0  0  0  0  0
    9.8058   15.7863   24.1290 C    0  0  0  0  0  0  0  0  0  0  0  0
   11.1709   15.4901   23.4376 C    0  0  0  0  0  0  0  0  0  0  0  0
   11.1357   15.8329   21.9184 C    0  0  0  0  0  0  0  0  0  0  0  0
    9.8442   15.2806   21.2283 C    0  0  0  0  0  0  0  0  0  0  0  0
    9.7502   15.7097   19.7711 C    0  0  0  0  0  0  0  0  0  0  0  0
    9.8624   14.7293   18.8559 N    0  0  0  0  0  0  0  0  0  0  0  0
    9.5997   16.8604   19.4200 O    0  0  0  0  0  0  0  0  0  0  0  0
    8.5675   15.6974   22.0299 C    0  0  0  0  0  0  0  0  0  0  0  0
    9.0943    7.5619   24.4129 H    0  0  0  0  0  0  0  0  0  0  0  0
    9.9586    7.8929   22.9065 H    0  0  0  0  0  0  0  0  0  0  0  0
    8.2011    8.1554   22.9840 H    0  0  0  0  0  0  0  0  0  0  0  0
    7.1093    8.5707   25.3300 H    0  0  0  0  0  0  0  0  0  0  0  0
    5.3114    9.3856   26.7670 H    0  0  0  0  0  0  0  0  0  0  0  0
    5.1377   11.7865   27.3364 H    0  0  0  0  0  0  0  0  0  0  0  0
    8.3942   13.9278   27.6207 H    0  0  0  0  0  0  0  0  0  0  0  0
    9.6470   15.7667   28.1671 H    0  0  0  0  0  0  0  0  0  0  0  0
    8.6149   17.0152   28.8679 H    0  0  0  0  0  0  0  0  0  0  0  0
    9.3274   17.2338   27.2585 H    0  0  0  0  0  0  0  0  0  0  0  0
    4.4511   17.8987   25.6376 H    0  0  0  0  0  0  0  0  0  0  0  0
    2.6508   16.8115   24.3702 H    0  0  0  0  0  0  0  0  0  0  0  0
    2.6834   14.3503   23.9907 H    0  0  0  0  0  0  0  0  0  0  0  0
    4.4952   12.9835   24.9037 H    0  0  0  0  0  0  0  0  0  0  0  0
    9.6497   12.5446   24.0304 H    0  0  0  0  0  0  0  0  0  0  0  0
    9.3949   13.4308   25.4471 H    0  0  0  0  0  0  0  0  0  0  0  0
    9.8476   15.5187   25.1820 H    0  0  0  0  0  0  0  0  0  0  0  0
    9.6427   16.8688   24.1573 H    0  0  0  0  0  0  0  0  0  0  0  0
   11.4271   14.4337   23.5622 H    0  0  0  0  0  0  0  0  0  0  0  0
   11.9593   16.0678   23.9254 H    0  0  0  0  0  0  0  0  0  0  0  0
   12.0169   15.4083   21.4282 H    0  0  0  0  0  0  0  0  0  0  0  0
   11.1986   16.9189   21.7973 H    0  0  0  0  0  0  0  0  0  0  0  0
    9.9100   14.1830   21.2683 H    0  0  0  0  0  0  0  0  0  0  0  0
    9.9557   14.9759   17.8822 H    0  0  0  0  0  0  0  0  0  0  0  0
   10.0673   13.7782   19.1438 H    0  0  0  0  0  0  0  0  0  0  0  0
    7.6685   15.3680   21.5010 H    0  0  0  0  0  0  0  0  0  0  0  0
    8.4719   16.7905   22.0667 H    0  0  0  0  0  0  0  0  0  0  0  0
 21 22  1  0  0  0  0
 20 21  1  0  0  0  0
  7 20  2  0  0  0  0
  6  7  1  0  0  0  0
  5  6  2  0  0  0  0
  4  5  1  0  0  0  0
  3  4  2  0  0  0  0
  2  3  1  0  0  0  0
  1  2  1  0  0  0  0
 33  1  1  0  0  0  0
 34  1  1  0  0  0  0
 35  1  1  0  0  0  0
 36  4  1  0  0  0  0
 37  5  1  0  0  0  0
 38  6  1  0  0  0  0
  8  7  1  0  0  0  0
  9  8  2  0  0  0  0
 10  9  1  0  0  0  0
 39  9  1  0  0  0  0
 11 10  1  0  0  0  0
 12 10  1  0  0  0  0
 40 11  1  0  0  0  0
 41 11  1  0  0  0  0
 42 11  1  0  0  0  0
 13 12  2  0  0  0  0
 14 12  1  0  0  0  0
 15 14  2  0  0  0  0
 16 15  1  0  0  0  0
 43 15  1  0  0  0  0
 17 16  2  0  0  0  0
 44 16  1  0  0  0  0
 18 17  1  0  0  0  0
 45 17  1  0  0  0  0
 19 18  2  0  0  0  0
 46 18  1  0  0  0  0
 47 21  1  0  0  0  0
 48 21  1  0  0  0  0
 23 22  2  0  0  0  0
 24 22  1  0  0  0  0
 25 24  1  0  0  0  0
 26 25  1  0  0  0  0
 49 25  1  0  0  0  0
 50 25  1  0  0  0  0
 27 26  1  0  0  0  0
 51 26  1  0  0  0  0
 52 26  1  0  0  0  0
 28 27  1  0  0  0  0
 53 27  1  0  0  0  0
 54 27  1  0  0  0  0
 29 28  1  0  0  0  0
 32 28  1  0  0  0  0
 55 28  1  0  0  0  0
 30 29  1  0  0  0  0
 31 29  2  0  0  0  0
 56 30  1  0  0  0  0
 57 30  1  0  0  0  0
 58 32  1  0  0  0  0
 59 32  1  0  0  0  0
 19  8  1  0  0  0  0
 19 14  1  0  0  0  0
 20  3  1  0  0  0  0
 32 24  1  0  0  0  0
M  END
>  <FittedScore>
-36.23

$$$$
