A71EV2A-x3450a_best-RMSD
  FITTED

 34 35     0  0  0  0  0  0  0999 V2000
    9.9997   16.8093   19.1362 O    0  0  0  0  0  0  0  0  0  0  0  0
   10.4993   15.7764   19.5419 C    0  0  0  0  0  0  0  0  0  0  0  0
   10.8441   14.8158   18.6685 N    0  0  0  0  0  0  0  0  0  0  0  0
   10.4787   15.3428   21.0073 C    0  0  0  0  0  0  0  0  0  0  0  0
   11.3964   16.2400   21.8930 C    0  0  0  0  0  0  0  0  0  0  0  0
   11.2764   15.8485   23.3928 C    0  0  0  0  0  0  0  0  0  0  0  0
    9.7934   15.7541   23.8448 C    0  0  0  0  0  0  0  0  0  0  0  0
    9.0190   15.2719   21.5595 C    0  0  0  0  0  0  0  0  0  0  0  0
    8.9790   14.8308   22.9875 N    0  0  0  0  0  0  0  0  0  0  0  0
    8.2991   13.7109   23.4141 C    0  0  0  0  0  0  0  0  0  0  0  0
    7.3946   13.2259   22.7492 O    0  0  0  0  0  0  0  0  0  0  0  0
    8.7819   12.9862   24.6804 C    0  0  0  0  0  0  0  0  0  0  0  0
    8.7315   11.4740   24.5100 C    0  0  0  0  0  0  0  0  0  0  0  0
    7.7984   10.6153   25.0882 C    0  0  0  0  0  0  0  0  0  0  0  0
    6.7551   10.9723   26.0093 C    0  0  0  0  0  0  0  0  0  0  0  0
    5.9328   11.2518   26.7452 N    0  0  0  0  0  0  0  0  0  0  0  0
    9.5984   10.8164   23.6449 C    0  0  0  0  0  0  0  0  0  0  0  0
    9.3760    9.4537   23.5639 C    0  0  0  0  0  0  0  0  0  0  0  0
    8.0117    8.9591   24.5468 S    0  0  0  0  0  0  0  0  0  0  0  0
   10.8185   15.0112   17.6736 H    0  0  0  0  0  0  0  0  0  0  0  0
   10.9845   13.8528   18.9766 H    0  0  0  0  0  0  0  0  0  0  0  0
   10.8860   14.3259   21.0865 H    0  0  0  0  0  0  0  0  0  0  0  0
   12.4359   16.1281   21.5759 H    0  0  0  0  0  0  0  0  0  0  0  0
   11.1370   17.2962   21.7704 H    0  0  0  0  0  0  0  0  0  0  0  0
   11.7853   14.8959   23.5714 H    0  0  0  0  0  0  0  0  0  0  0  0
   11.7903   16.5940   24.0049 H    0  0  0  0  0  0  0  0  0  0  0  0
    9.7599   15.4949   24.9041 H    0  0  0  0  0  0  0  0  0  0  0  0
    9.3502   16.7560   23.8029 H    0  0  0  0  0  0  0  0  0  0  0  0
    8.4399   14.6159   20.9030 H    0  0  0  0  0  0  0  0  0  0  0  0
    8.5357   16.2489   21.4784 H    0  0  0  0  0  0  0  0  0  0  0  0
    9.8246   13.2171   24.9188 H    0  0  0  0  0  0  0  0  0  0  0  0
    8.1950   13.3221   25.5379 H    0  0  0  0  0  0  0  0  0  0  0  0
   10.3777   11.3203   23.0686 H    0  0  0  0  0  0  0  0  0  0  0  0
    9.9614    8.7611   22.9682 H    0  0  0  0  0  0  0  0  0  0  0  0
  7  9  1  0  0  0  0
  6  7  1  0  0  0  0
  5  6  1  0  0  0  0
  4  5  1  0  0  0  0
  2  4  1  0  0  0  0
  1  2  2  0  0  0  0
  3  2  1  0  0  0  0
 20  3  1  0  0  0  0
 21  3  1  0  0  0  0
 22  4  1  0  0  0  0
 23  5  1  0  0  0  0
 24  5  1  0  0  0  0
 25  6  1  0  0  0  0
 26  6  1  0  0  0  0
 27  7  1  0  0  0  0
 28  7  1  0  0  0  0
  8  4  1  0  0  0  0
 29  8  1  0  0  0  0
 30  8  1  0  0  0  0
 10  9  1  0  0  0  0
 11 10  2  0  0  0  0
 12 10  1  0  0  0  0
 31 12  1  0  0  0  0
 32 12  1  0  0  0  0
 13 12  1  0  0  0  0
 14 13  2  0  0  0  0
 19 14  1  0  0  0  0
 15 14  1  0  0  0  0
 16 15  3  0  0  0  0
 17 13  1  0  0  0  0
 33 17  1  0  0  0  0
 18 17  2  0  0  0  0
 34 18  1  0  0  0  0
  9  8  1  0  0  0  0
 19 18  1  0  0  0  0
M  END
>  <FittedScore>
-33.32

$$$$
