A71EV2A-x3450a_lowest-energy
  FITTED

 34 35     0  0  0  0  0  0  0999 V2000
    9.6374   16.7215   19.2503 O    0  0  0  0  0  0  0  0  0  0  0  0
   10.1506   15.6936   19.6529 C    0  0  0  0  0  0  0  0  0  0  0  0
   10.6899   14.8307   18.7701 N    0  0  0  0  0  0  0  0  0  0  0  0
   10.1057   15.2107   21.1068 C    0  0  0  0  0  0  0  0  0  0  0  0
   11.0937   16.0113   22.0042 C    0  0  0  0  0  0  0  0  0  0  0  0
   11.0080   15.5310   23.4796 C    0  0  0  0  0  0  0  0  0  0  0  0
    9.5374   15.5006   23.9886 C    0  0  0  0  0  0  0  0  0  0  0  0
    8.6628   15.2217   21.7089 C    0  0  0  0  0  0  0  0  0  0  0  0
    8.6164   14.6919   23.1162 N    0  0  0  0  0  0  0  0  0  0  0  0
    7.8014   13.6429   23.5014 C    0  0  0  0  0  0  0  0  0  0  0  0
    6.9476   13.1999   22.7485 O    0  0  0  0  0  0  0  0  0  0  0  0
    8.0578   12.8538   24.7990 C    0  0  0  0  0  0  0  0  0  0  0  0
    8.4412   11.4136   24.4686 C    0  0  0  0  0  0  0  0  0  0  0  0
    7.8256   10.2644   24.9645 C    0  0  0  0  0  0  0  0  0  0  0  0
    6.8006   10.2153   25.9795 C    0  0  0  0  0  0  0  0  0  0  0  0
    6.0055   10.1731   26.7922 N    0  0  0  0  0  0  0  0  0  0  0  0
    9.4381   11.1186   23.5445 C    0  0  0  0  0  0  0  0  0  0  0  0
    9.5704    9.7695   23.2882 C    0  0  0  0  0  0  0  0  0  0  0  0
    8.4416    8.8013   24.2043 S    0  0  0  0  0  0  0  0  0  0  0  0
   10.9166   13.8820   19.0649 H    0  0  0  0  0  0  0  0  0  0  0  0
   10.6800   15.0472   17.7802 H    0  0  0  0  0  0  0  0  0  0  0  0
   10.4337   14.1629   21.1424 H    0  0  0  0  0  0  0  0  0  0  0  0
   12.1161   15.8853   21.6364 H    0  0  0  0  0  0  0  0  0  0  0  0
   10.8683   17.0800   21.9486 H    0  0  0  0  0  0  0  0  0  0  0  0
   11.4456   14.5324   23.5658 H    0  0  0  0  0  0  0  0  0  0  0  0
   11.6025   16.1927   24.1128 H    0  0  0  0  0  0  0  0  0  0  0  0
    9.5475   15.1973   25.0312 H    0  0  0  0  0  0  0  0  0  0  0  0
    9.1581   16.5265   24.0292 H    0  0  0  0  0  0  0  0  0  0  0  0
    8.0197   14.6577   21.0286 H    0  0  0  0  0  0  0  0  0  0  0  0
    8.2631   16.2392   21.7022 H    0  0  0  0  0  0  0  0  0  0  0  0
    8.8412   13.2408   25.4446 H    0  0  0  0  0  0  0  0  0  0  0  0
    7.1457   12.9034   25.3975 H    0  0  0  0  0  0  0  0  0  0  0  0
   10.0468   11.8697   23.0447 H    0  0  0  0  0  0  0  0  0  0  0  0
   10.2829    9.3534   22.5830 H    0  0  0  0  0  0  0  0  0  0  0  0
  7  9  1  0  0  0  0
  6  7  1  0  0  0  0
  5  6  1  0  0  0  0
  4  5  1  0  0  0  0
  2  4  1  0  0  0  0
  1  2  2  0  0  0  0
  3  2  1  0  0  0  0
 20  3  1  0  0  0  0
 21  3  1  0  0  0  0
 22  4  1  0  0  0  0
 23  5  1  0  0  0  0
 24  5  1  0  0  0  0
 25  6  1  0  0  0  0
 26  6  1  0  0  0  0
 27  7  1  0  0  0  0
 28  7  1  0  0  0  0
  8  4  1  0  0  0  0
 29  8  1  0  0  0  0
 30  8  1  0  0  0  0
 10  9  1  0  0  0  0
 11 10  2  0  0  0  0
 12 10  1  0  0  0  0
 31 12  1  0  0  0  0
 32 12  1  0  0  0  0
 13 12  1  0  0  0  0
 14 13  2  0  0  0  0
 19 14  1  0  0  0  0
 15 14  1  0  0  0  0
 16 15  3  0  0  0  0
 17 13  1  0  0  0  0
 33 17  1  0  0  0  0
 18 17  2  0  0  0  0
 34 18  1  0  0  0  0
  9  8  1  0  0  0  0
 19 18  1  0  0  0  0
M  END
>  <FittedScore>
-33.31

$$$$
