A71EV2A-x4954a_lowest-energy
  FITTED

 36 37     0  0  0  0  0  0  0999 V2000
   10.5630   14.5647   25.2914 O    0  0  0  0  0  0  0  0  0  0  0  0
   10.4667   14.8761   24.1183 C    0  0  0  0  0  0  0  0  0  0  0  0
   11.7383   15.3246   23.3775 C    0  0  0  0  0  0  0  0  0  0  0  0
   11.5184   15.9106   21.9569 C    0  0  0  0  0  0  0  0  0  0  0  0
   10.4970   15.0331   21.1903 C    0  0  0  0  0  0  0  0  0  0  0  0
   10.3165   15.4892   19.7445 C    0  0  0  0  0  0  0  0  0  0  0  0
    9.6999   16.4867   19.4191 O    0  0  0  0  0  0  0  0  0  0  0  0
   10.7247   14.6158   18.8085 N    0  0  0  0  0  0  0  0  0  0  0  0
    9.1490   14.9708   21.9593 C    0  0  0  0  0  0  0  0  0  0  0  0
    9.3000   14.6684   23.4124 N    0  0  0  0  0  0  0  0  0  0  0  0
    8.0828   14.0534   24.0133 C    0  0  0  0  0  0  0  0  0  0  0  0
    8.2228   12.5347   24.1849 C    0  0  0  0  0  0  0  0  0  0  0  0
    9.4293   11.5734   23.3045 S    0  0  0  0  0  0  0  0  0  0  0  0
    8.8153   10.1178   24.0546 C    0  0  0  0  0  0  0  0  0  0  0  0
    7.7659   10.3803   24.9129 C    0  0  0  0  0  0  0  0  0  0  0  0
    7.4260   11.7324   25.0096 C    0  0  0  0  0  0  0  0  0  0  0  0
    6.2875   12.2669   25.8901 C    0  0  0  0  0  0  0  0  0  0  0  0
    5.7012   11.3328   26.9698 C    0  0  0  0  0  0  0  0  0  0  0  0
   12.2610   16.0743   23.9777 H    0  0  0  0  0  0  0  0  0  0  0  0
   12.4100   14.4652   23.2985 H    0  0  0  0  0  0  0  0  0  0  0  0
   11.1540   16.9409   22.0279 H    0  0  0  0  0  0  0  0  0  0  0  0
   12.4679   15.9437   21.4145 H    0  0  0  0  0  0  0  0  0  0  0  0
   10.8956   14.0076   21.1802 H    0  0  0  0  0  0  0  0  0  0  0  0
   10.7081   14.8934   17.8380 H    0  0  0  0  0  0  0  0  0  0  0  0
   11.0066   13.6679   19.0680 H    0  0  0  0  0  0  0  0  0  0  0  0
    8.6172   15.9215   21.8655 H    0  0  0  0  0  0  0  0  0  0  0  0
    8.5299   14.2134   21.4662 H    0  0  0  0  0  0  0  0  0  0  0  0
    7.9080   14.5337   24.9758 H    0  0  0  0  0  0  0  0  0  0  0  0
    7.1846   14.2605   23.4237 H    0  0  0  0  0  0  0  0  0  0  0  0
    9.2132    9.1247   23.8554 H    0  0  0  0  0  0  0  0  0  0  0  0
    7.2661    9.5820   25.4518 H    0  0  0  0  0  0  0  0  0  0  0  0
    6.6322   13.1651   26.4072 H    0  0  0  0  0  0  0  0  0  0  0  0
    5.4699   12.5868   25.2369 H    0  0  0  0  0  0  0  0  0  0  0  0
    6.4860   10.9815   27.6474 H    0  0  0  0  0  0  0  0  0  0  0  0
    5.2256   10.4620   26.5176 H    0  0  0  0  0  0  0  0  0  0  0  0
    4.9487   11.8636   27.5582 H    0  0  0  0  0  0  0  0  0  0  0  0
  9 10  1  0  0  0  0
  5  9  1  0  0  0  0
  6  5  1  0  0  0  0
  4  5  1  0  0  0  0
  3  4  1  0  0  0  0
  2  3  1  0  0  0  0
  1  2  2  0  0  0  0
 19  3  1  0  0  0  0
 20  3  1  0  0  0  0
 21  4  1  0  0  0  0
 22  4  1  0  0  0  0
 23  5  1  0  0  0  0
  7  6  2  0  0  0  0
  8  6  1  0  0  0  0
 24  8  1  0  0  0  0
 25  8  1  0  0  0  0
 26  9  1  0  0  0  0
 27  9  1  0  0  0  0
 11 10  1  0  0  0  0
 28 11  1  0  0  0  0
 29 11  1  0  0  0  0
 12 11  1  0  0  0  0
 13 12  1  0  0  0  0
 14 13  1  0  0  0  0
 30 14  1  0  0  0  0
 15 14  2  0  0  0  0
 31 15  1  0  0  0  0
 16 15  1  0  0  0  0
 17 16  1  0  0  0  0
 32 17  1  0  0  0  0
 33 17  1  0  0  0  0
 18 17  1  0  0  0  0
 34 18  1  0  0  0  0
 35 18  1  0  0  0  0
 36 18  1  0  0  0  0
 10  2  1  0  0  0  0
 16 12  2  0  0  0  0
M  END
>  <FittedScore>
-27.19

$$$$
