A71EV2A-x4344a_best-RMSD
  FITTED

 43 45     0  0  0  0  0  0  0999 V2000
    9.2450   14.0603   25.4185 O    0  0  0  0  0  0  0  0  0  0  0  0
    8.8919   14.2588   24.2691 C    0  0  0  0  0  0  0  0  0  0  0  0
    9.5979   15.1174   23.4399 N    0  0  0  0  0  0  0  0  0  0  0  0
   10.7867   15.8983   23.9168 C    0  0  0  0  0  0  0  0  0  0  0  0
   12.0220   15.7797   22.9933 C    0  0  0  0  0  0  0  0  0  0  0  0
   11.7012   16.1152   21.5253 C    0  0  0  0  0  0  0  0  0  0  0  0
    9.2626   15.4890   22.0203 C    0  0  0  0  0  0  0  0  0  0  0  0
   10.4768   15.2886   21.0544 C    0  0  0  0  0  0  0  0  0  0  0  0
   10.1870   15.6147   19.5955 C    0  0  0  0  0  0  0  0  0  0  0  0
    9.4229   16.4802   19.2159 O    0  0  0  0  0  0  0  0  0  0  0  0
   10.7869   14.8027   18.7074 N    0  0  0  0  0  0  0  0  0  0  0  0
    7.6170   13.5501   23.7888 C    0  0  0  0  0  0  0  0  0  0  0  0
    7.3478   12.2244   24.5149 C    0  0  0  0  0  0  0  0  0  0  0  0
    8.1192   11.0787   24.2312 C    0  0  0  0  0  0  0  0  0  0  0  0
    9.3546   10.9706   23.3617 C    0  0  0  0  0  0  0  0  0  0  0  0
    9.6952    9.4632   23.3027 C    0  0  0  0  0  0  0  0  0  0  0  0
    8.6214    8.7499   24.1516 C    0  0  0  0  0  0  0  0  0  0  0  0
    7.7738    9.8412   24.7484 C    0  0  0  0  0  0  0  0  0  0  0  0
    6.7318    9.7083   25.6768 C    0  0  0  0  0  0  0  0  0  0  0  0
    6.0242   10.8588   26.0657 C    0  0  0  0  0  0  0  0  0  0  0  0
    6.3179   12.1043   25.4736 C    0  0  0  0  0  0  0  0  0  0  0  0
   10.5056   16.9507   24.0163 H    0  0  0  0  0  0  0  0  0  0  0  0
   11.1192   15.6008   24.9160 H    0  0  0  0  0  0  0  0  0  0  0  0
   12.8063   16.4564   23.3482 H    0  0  0  0  0  0  0  0  0  0  0  0
   12.4386   14.7664   23.0578 H    0  0  0  0  0  0  0  0  0  0  0  0
   11.5084   17.1887   21.4184 H    0  0  0  0  0  0  0  0  0  0  0  0
   12.5717   15.8880   20.9062 H    0  0  0  0  0  0  0  0  0  0  0  0
    8.9479   16.5413   22.0058 H    0  0  0  0  0  0  0  0  0  0  0  0
    8.4154   14.9474   21.6033 H    0  0  0  0  0  0  0  0  0  0  0  0
   10.7416   14.2243   21.1266 H    0  0  0  0  0  0  0  0  0  0  0  0
   11.1795   13.9137   19.0142 H    0  0  0  0  0  0  0  0  0  0  0  0
   10.6841   14.9736   17.7179 H    0  0  0  0  0  0  0  0  0  0  0  0
    7.6583   13.2978   22.7315 H    0  0  0  0  0  0  0  0  0  0  0  0
    6.7740   14.2374   23.8997 H    0  0  0  0  0  0  0  0  0  0  0  0
   10.1822   11.5385   23.7990 H    0  0  0  0  0  0  0  0  0  0  0  0
    9.1717   11.3635   22.3596 H    0  0  0  0  0  0  0  0  0  0  0  0
   10.6901    9.2805   23.7197 H    0  0  0  0  0  0  0  0  0  0  0  0
    9.6789    9.1031   22.2711 H    0  0  0  0  0  0  0  0  0  0  0  0
    9.0888    8.1554   24.9410 H    0  0  0  0  0  0  0  0  0  0  0  0
    8.0132    8.0785   23.5388 H    0  0  0  0  0  0  0  0  0  0  0  0
    6.4713    8.7362   26.0870 H    0  0  0  0  0  0  0  0  0  0  0  0
    5.2271   10.7808   26.8030 H    0  0  0  0  0  0  0  0  0  0  0  0
    5.7306   12.9738   25.7592 H    0  0  0  0  0  0  0  0  0  0  0  0
  2  1  2  0  0  0  0
  3  2  1  0  0  0  0
  4  3  1  0  0  0  0
 22  4  1  0  0  0  0
 23  4  1  0  0  0  0
  5  4  1  0  0  0  0
 24  5  1  0  0  0  0
 25  5  1  0  0  0  0
  6  5  1  0  0  0  0
 26  6  1  0  0  0  0
 27  6  1  0  0  0  0
  7  3  1  0  0  0  0
 28  7  1  0  0  0  0
 29  7  1  0  0  0  0
  8  6  1  0  0  0  0
  9  8  1  0  0  0  0
 30  8  1  0  0  0  0
 10  9  2  0  0  0  0
 11  9  1  0  0  0  0
 31 11  1  0  0  0  0
 32 11  1  0  0  0  0
 12  2  1  0  0  0  0
 33 12  1  0  0  0  0
 34 12  1  0  0  0  0
 13 12  1  0  0  0  0
 21 13  2  0  0  0  0
 14 13  1  0  0  0  0
 15 14  1  0  0  0  0
 35 15  1  0  0  0  0
 36 15  1  0  0  0  0
 16 15  1  0  0  0  0
 37 16  1  0  0  0  0
 38 16  1  0  0  0  0
 17 16  1  0  0  0  0
 39 17  1  0  0  0  0
 40 17  1  0  0  0  0
 18 14  2  0  0  0  0
 19 18  1  0  0  0  0
 41 19  1  0  0  0  0
 20 19  2  0  0  0  0
 42 20  1  0  0  0  0
 43 21  1  0  0  0  0
  8  7  1  0  0  0  0
 18 17  1  0  0  0  0
 21 20  1  0  0  0  0
M  END
>  <FittedScore>
-31.15

$$$$
