A71EV2A-x4344a_lowest-energy
  FITTED

 43 45     0  0  0  0  0  0  0999 V2000
    7.3513   13.3666   22.9015 O    0  0  0  0  0  0  0  0  0  0  0  0
    8.1634   13.9385   23.6172 C    0  0  0  0  0  0  0  0  0  0  0  0
    8.9622   14.9541   23.1277 N    0  0  0  0  0  0  0  0  0  0  0  0
    9.9910   15.7304   23.9018 C    0  0  0  0  0  0  0  0  0  0  0  0
   11.4230   15.5997   23.3148 C    0  0  0  0  0  0  0  0  0  0  0  0
   11.4519   16.0014   21.8156 C    0  0  0  0  0  0  0  0  0  0  0  0
    8.9441   15.3949   21.6944 C    0  0  0  0  0  0  0  0  0  0  0  0
   10.3435   15.2576   21.0136 C    0  0  0  0  0  0  0  0  0  0  0  0
   10.3412   15.7159   19.5576 C    0  0  0  0  0  0  0  0  0  0  0  0
    9.8109   16.7365   19.1700 O    0  0  0  0  0  0  0  0  0  0  0  0
   10.9000   14.8704   18.6742 N    0  0  0  0  0  0  0  0  0  0  0  0
    8.3952   13.4274   25.0537 C    0  0  0  0  0  0  0  0  0  0  0  0
    7.8339   12.0313   25.2995 C    0  0  0  0  0  0  0  0  0  0  0  0
    8.3948   10.9113   24.6577 C    0  0  0  0  0  0  0  0  0  0  0  0
    9.5942   10.8625   23.7343 C    0  0  0  0  0  0  0  0  0  0  0  0
    9.7868    9.3763   23.3625 C    0  0  0  0  0  0  0  0  0  0  0  0
    8.5702    8.6458   23.9616 C    0  0  0  0  0  0  0  0  0  0  0  0
    7.8270    9.6591   24.7908 C    0  0  0  0  0  0  0  0  0  0  0  0
    6.6989    9.4607   25.5984 C    0  0  0  0  0  0  0  0  0  0  0  0
    6.1398   10.5610   26.2695 C    0  0  0  0  0  0  0  0  0  0  0  0
    6.6976   11.8420   26.1131 C    0  0  0  0  0  0  0  0  0  0  0  0
    9.7037   16.7890   23.8928 H    0  0  0  0  0  0  0  0  0  0  0  0
   10.0358   15.4900   24.9625 H    0  0  0  0  0  0  0  0  0  0  0  0
   12.1064   16.2452   23.8732 H    0  0  0  0  0  0  0  0  0  0  0  0
   11.7845   14.5713   23.4319 H    0  0  0  0  0  0  0  0  0  0  0  0
   11.3173   17.0848   21.7274 H    0  0  0  0  0  0  0  0  0  0  0  0
   12.4331   15.7681   21.3909 H    0  0  0  0  0  0  0  0  0  0  0  0
    8.5923   16.4322   21.6559 H    0  0  0  0  0  0  0  0  0  0  0  0
    8.2243   14.8385   21.0901 H    0  0  0  0  0  0  0  0  0  0  0  0
   10.5829   14.1856   21.0447 H    0  0  0  0  0  0  0  0  0  0  0  0
   11.1996   13.9408   18.9652 H    0  0  0  0  0  0  0  0  0  0  0  0
   10.8737   15.0892   17.6867 H    0  0  0  0  0  0  0  0  0  0  0  0
    7.9687   14.1484   25.7575 H    0  0  0  0  0  0  0  0  0  0  0  0
    9.4618   13.3665   25.2837 H    0  0  0  0  0  0  0  0  0  0  0  0
   10.4853   11.2497   24.2328 H    0  0  0  0  0  0  0  0  0  0  0  0
    9.4265   11.4515   22.8297 H    0  0  0  0  0  0  0  0  0  0  0  0
   10.7136    8.9883   23.7938 H    0  0  0  0  0  0  0  0  0  0  0  0
    9.8343    9.2462   22.2773 H    0  0  0  0  0  0  0  0  0  0  0  0
    8.8893    7.8021   24.5829 H    0  0  0  0  0  0  0  0  0  0  0  0
    7.9224    8.2615   23.1669 H    0  0  0  0  0  0  0  0  0  0  0  0
    6.2637    8.4700   25.7082 H    0  0  0  0  0  0  0  0  0  0  0  0
    5.2659   10.4279   26.9014 H    0  0  0  0  0  0  0  0  0  0  0  0
    6.2334   12.6873   26.6138 H    0  0  0  0  0  0  0  0  0  0  0  0
  2  1  2  0  0  0  0
  3  2  1  0  0  0  0
  4  3  1  0  0  0  0
 22  4  1  0  0  0  0
 23  4  1  0  0  0  0
  5  4  1  0  0  0  0
 24  5  1  0  0  0  0
 25  5  1  0  0  0  0
  6  5  1  0  0  0  0
 26  6  1  0  0  0  0
 27  6  1  0  0  0  0
  7  3  1  0  0  0  0
 28  7  1  0  0  0  0
 29  7  1  0  0  0  0
  8  6  1  0  0  0  0
  9  8  1  0  0  0  0
 30  8  1  0  0  0  0
 10  9  2  0  0  0  0
 11  9  1  0  0  0  0
 31 11  1  0  0  0  0
 32 11  1  0  0  0  0
 12  2  1  0  0  0  0
 33 12  1  0  0  0  0
 34 12  1  0  0  0  0
 13 12  1  0  0  0  0
 21 13  2  0  0  0  0
 14 13  1  0  0  0  0
 15 14  1  0  0  0  0
 35 15  1  0  0  0  0
 36 15  1  0  0  0  0
 16 15  1  0  0  0  0
 37 16  1  0  0  0  0
 38 16  1  0  0  0  0
 17 16  1  0  0  0  0
 39 17  1  0  0  0  0
 40 17  1  0  0  0  0
 18 14  2  0  0  0  0
 19 18  1  0  0  0  0
 41 19  1  0  0  0  0
 20 19  2  0  0  0  0
 42 20  1  0  0  0  0
 43 21  1  0  0  0  0
  8  7  1  0  0  0  0
 18 17  1  0  0  0  0
 21 20  1  0  0  0  0
M  END
>  <FittedScore>
-32.28

$$$$
