A71EV2A-x7475a_lowest-energy
  FITTED

 57 60     0  0  0  0  0  0  0999 V2000
    9.7617   16.8272   19.3520 O    0  0  0  0  0  0  0  0  0  0  0  0
   10.1848   15.7421   19.7040 C    0  0  0  0  0  0  0  0  0  0  0  0
   10.6389   14.8567   18.7965 N    0  0  0  0  0  0  0  0  0  0  0  0
   10.1675   15.2666   21.1557 C    0  0  0  0  0  0  0  0  0  0  0  0
   11.1524   16.1046   22.0216 C    0  0  0  0  0  0  0  0  0  0  0  0
   11.0655   15.6962   23.5156 C    0  0  0  0  0  0  0  0  0  0  0  0
    9.5994   15.7023   24.0223 C    0  0  0  0  0  0  0  0  0  0  0  0
    8.7232   15.2727   21.7609 C    0  0  0  0  0  0  0  0  0  0  0  0
    8.7013   14.8235   23.1926 N    0  0  0  0  0  0  0  0  0  0  0  0
    7.9532   13.7552   23.6386 C    0  0  0  0  0  0  0  0  0  0  0  0
    7.1358   13.1984   22.9164 O    0  0  0  0  0  0  0  0  0  0  0  0
    8.2043   13.2355   25.0608 C    0  0  0  0  0  0  0  0  0  0  0  0
    7.4141   11.9680   25.4157 C    0  0  0  0  0  0  0  0  0  0  0  0
    7.8125   10.6884   24.9297 C    0  0  0  0  0  0  0  0  0  0  0  0
    9.2405   10.4736   23.8745 S    0  0  0  0  0  0  0  0  0  0  0  0
    9.3095    8.7071   23.4408 C    0  0  0  0  0  0  0  0  0  0  0  0
    6.2488   12.0223   26.2293 C    0  0  0  0  0  0  0  0  0  0  0  0
    5.5626   10.8760   26.4960 N    0  0  0  0  0  0  0  0  0  0  0  0
    6.0214    9.6908   26.0282 C    0  0  0  0  0  0  0  0  0  0  0  0
    7.1149    9.5638   25.2456 N    0  0  0  0  0  0  0  0  0  0  0  0
    5.7438   13.1939   26.7875 N    0  0  0  0  0  0  0  0  0  0  0  0
    4.8180   14.0572   26.0159 C    0  0  0  0  0  0  0  0  0  0  0  0
    5.1781   15.5629   26.1433 C    0  0  0  0  0  0  0  0  0  0  0  0
    4.4690   16.6081   25.3236 C    0  0  0  0  0  0  0  0  0  0  0  0
    5.9215   16.3345   25.0896 C    0  0  0  0  0  0  0  0  0  0  0  0
    3.4750   13.8526   26.7653 C    0  0  0  0  0  0  0  0  0  0  0  0
    3.8512   13.4866   28.2169 C    0  0  0  0  0  0  0  0  0  0  0  0
    5.3769   13.2555   28.2215 C    0  0  0  0  0  0  0  0  0  0  0  0
   10.8405   13.9001   19.0788 H    0  0  0  0  0  0  0  0  0  0  0  0
   10.6314   15.0941   17.8126 H    0  0  0  0  0  0  0  0  0  0  0  0
   10.5169   14.2283   21.1955 H    0  0  0  0  0  0  0  0  0  0  0  0
   12.1744   15.9512   21.6640 H    0  0  0  0  0  0  0  0  0  0  0  0
   10.9411   17.1742   21.9231 H    0  0  0  0  0  0  0  0  0  0  0  0
   11.4967   14.6994   23.6540 H    0  0  0  0  0  0  0  0  0  0  0  0
   11.6621   16.3870   24.1162 H    0  0  0  0  0  0  0  0  0  0  0  0
    9.6200   15.4477   25.0800 H    0  0  0  0  0  0  0  0  0  0  0  0
    9.2115   16.7265   24.0033 H    0  0  0  0  0  0  0  0  0  0  0  0
    8.0899   14.6576   21.1198 H    0  0  0  0  0  0  0  0  0  0  0  0
    8.2909   16.2789   21.7057 H    0  0  0  0  0  0  0  0  0  0  0  0
    9.2702   13.0334   25.1934 H    0  0  0  0  0  0  0  0  0  0  0  0
    7.9899   14.0246   25.7810 H    0  0  0  0  0  0  0  0  0  0  0  0
    9.3954    8.1019   24.3433 H    0  0  0  0  0  0  0  0  0  0  0  0
   10.1818    8.5159   22.8111 H    0  0  0  0  0  0  0  0  0  0  0  0
    8.4085    8.4234   22.8878 H    0  0  0  0  0  0  0  0  0  0  0  0
    5.4766    8.7888   26.2964 H    0  0  0  0  0  0  0  0  0  0  0  0
    4.7222   13.7510   24.9659 H    0  0  0  0  0  0  0  0  0  0  0  0
    5.3848   15.8713   27.1662 H    0  0  0  0  0  0  0  0  0  0  0  0
    3.7658   16.2825   24.5637 H    0  0  0  0  0  0  0  0  0  0  0  0
    4.1937   17.5341   25.8225 H    0  0  0  0  0  0  0  0  0  0  0  0
    6.1659   15.8537   24.1520 H    0  0  0  0  0  0  0  0  0  0  0  0
    6.6389   17.0781   25.4219 H    0  0  0  0  0  0  0  0  0  0  0  0
    2.8149   14.7265   26.7305 H    0  0  0  0  0  0  0  0  0  0  0  0
    2.9218   13.0264   26.3057 H    0  0  0  0  0  0  0  0  0  0  0  0
    3.5723   14.2839   28.9098 H    0  0  0  0  0  0  0  0  0  0  0  0
    3.3253   12.5768   28.5234 H    0  0  0  0  0  0  0  0  0  0  0  0
    5.8904   14.0801   28.7208 H    0  0  0  0  0  0  0  0  0  0  0  0
    5.6293   12.3552   28.7857 H    0  0  0  0  0  0  0  0  0  0  0  0
  9 10  1  0  0  0  0
  7  9  1  0  0  0  0
  6  7  1  0  0  0  0
  5  6  1  0  0  0  0
  4  5  1  0  0  0  0
  2  4  1  0  0  0  0
  1  2  2  0  0  0  0
  3  2  1  0  0  0  0
 29  3  1  0  0  0  0
 30  3  1  0  0  0  0
 31  4  1  0  0  0  0
 32  5  1  0  0  0  0
 33  5  1  0  0  0  0
 34  6  1  0  0  0  0
 35  6  1  0  0  0  0
 36  7  1  0  0  0  0
 37  7  1  0  0  0  0
  8  4  1  0  0  0  0
 38  8  1  0  0  0  0
 39  8  1  0  0  0  0
 11 10  2  0  0  0  0
 12 10  1  0  0  0  0
 40 12  1  0  0  0  0
 41 12  1  0  0  0  0
 13 12  1  0  0  0  0
 14 13  1  0  0  0  0
 20 14  2  0  0  0  0
 15 14  1  0  0  0  0
 16 15  1  0  0  0  0
 42 16  1  0  0  0  0
 43 16  1  0  0  0  0
 44 16  1  0  0  0  0
 17 13  2  0  0  0  0
 18 17  1  0  0  0  0
 19 18  2  0  0  0  0
 45 19  1  0  0  0  0
 21 17  1  0  0  0  0
 28 21  1  0  0  0  0
 22 21  1  0  0  0  0
 23 22  1  0  0  0  0
 46 22  1  0  0  0  0
 25 23  1  0  0  0  0
 47 23  1  0  0  0  0
 24 23  1  0  0  0  0
 48 24  1  0  0  0  0
 49 24  1  0  0  0  0
 50 25  1  0  0  0  0
 51 25  1  0  0  0  0
 26 22  1  0  0  0  0
 52 26  1  0  0  0  0
 53 26  1  0  0  0  0
 27 26  1  0  0  0  0
 54 27  1  0  0  0  0
 55 27  1  0  0  0  0
 56 28  1  0  0  0  0
 57 28  1  0  0  0  0
  9  8  1  0  0  0  0
 20 19  1  0  0  0  0
 25 24  1  0  0  0  0
 28 27  1  0  0  0  0
M  END
>  <FittedScore>
-35.71

$$$$
