A71EV2A-x4559b_best-RMSD
  FITTED

 43 45     0  0  0  0  0  0  0999 V2000
    9.8864   16.7369   19.1341 O    0  0  0  0  0  0  0  0  0  0  0  0
   10.3034   15.6877   19.5803 C    0  0  0  0  0  0  0  0  0  0  0  0
   10.6585   14.7078   18.7338 N    0  0  0  0  0  0  0  0  0  0  0  0
   10.3345   15.3238   21.0664 C    0  0  0  0  0  0  0  0  0  0  0  0
   11.2886   16.2632   21.8652 C    0  0  0  0  0  0  0  0  0  0  0  0
   11.2967   15.8719   23.3686 C    0  0  0  0  0  0  0  0  0  0  0  0
    9.8549   15.7293   23.9381 C    0  0  0  0  0  0  0  0  0  0  0  0
    8.9099   15.2867   21.7106 C    0  0  0  0  0  0  0  0  0  0  0  0
    8.9697   14.8097   23.1309 N    0  0  0  0  0  0  0  0  0  0  0  0
    8.3682   13.6441   23.5668 C    0  0  0  0  0  0  0  0  0  0  0  0
    7.5391   13.0664   22.8778 O    0  0  0  0  0  0  0  0  0  0  0  0
    8.8682   13.0172   24.8817 C    0  0  0  0  0  0  0  0  0  0  0  0
    8.2107   11.7450   25.2195 N    0  0  0  0  0  0  0  0  0  0  0  0
    7.1278   11.6148   26.0344 C    0  0  0  0  0  0  0  0  0  0  0  0
    6.3558   12.5365   26.7571 C    0  0  0  0  0  0  0  0  0  0  0  0
    5.2940   12.0432   27.5408 C    0  0  0  0  0  0  0  0  0  0  0  0
    8.6171   10.5479   24.7130 C    0  0  0  0  0  0  0  0  0  0  0  0
    7.7542    9.5966   25.2403 C    0  0  0  0  0  0  0  0  0  0  0  0
    6.8495   10.2597   26.0639 C    0  0  0  0  0  0  0  0  0  0  0  0
    5.8009    9.7570   26.8383 C    0  0  0  0  0  0  0  0  0  0  0  0
    5.0087   10.6572   27.5837 C    0  0  0  0  0  0  0  0  0  0  0  0
    3.8668   10.1323   28.4453 C    0  0  0  0  0  0  0  0  0  0  0  0
   10.8702   13.7753   19.0782 H    0  0  0  0  0  0  0  0  0  0  0  0
   10.5650   14.8421   17.7355 H    0  0  0  0  0  0  0  0  0  0  0  0
   10.7385   14.3069   21.1709 H    0  0  0  0  0  0  0  0  0  0  0  0
   12.3015   16.1921   21.4633 H    0  0  0  0  0  0  0  0  0  0  0  0
   10.9795   17.3079   21.7551 H    0  0  0  0  0  0  0  0  0  0  0  0
   11.8314   14.9267   23.5010 H    0  0  0  0  0  0  0  0  0  0  0  0
   11.8442   16.6286   23.9391 H    0  0  0  0  0  0  0  0  0  0  0  0
    9.9442   15.4496   24.9870 H    0  0  0  0  0  0  0  0  0  0  0  0
    9.3884   16.7183   23.9724 H    0  0  0  0  0  0  0  0  0  0  0  0
    8.2608   14.6655   21.0870 H    0  0  0  0  0  0  0  0  0  0  0  0
    8.4605   16.2848   21.6819 H    0  0  0  0  0  0  0  0  0  0  0  0
    9.9492   12.8650   24.7939 H    0  0  0  0  0  0  0  0  0  0  0  0
    8.7349   13.7190   25.7101 H    0  0  0  0  0  0  0  0  0  0  0  0
    6.5599   13.6047   26.7267 H    0  0  0  0  0  0  0  0  0  0  0  0
    4.6974   12.7431   28.1194 H    0  0  0  0  0  0  0  0  0  0  0  0
    9.4540   10.3805   24.0372 H    0  0  0  0  0  0  0  0  0  0  0  0
    7.7993    8.5262   25.0499 H    0  0  0  0  0  0  0  0  0  0  0  0
    5.6060    8.6840   26.8599 H    0  0  0  0  0  0  0  0  0  0  0  0
    3.4592    9.1988   28.0457 H    0  0  0  0  0  0  0  0  0  0  0  0
    3.0445   10.8497   28.5049 H    0  0  0  0  0  0  0  0  0  0  0  0
    4.2294    9.9385   29.4578 H    0  0  0  0  0  0  0  0  0  0  0  0
  9 10  1  0  0  0  0
  7  9  1  0  0  0  0
  6  7  1  0  0  0  0
  5  6  1  0  0  0  0
  4  5  1  0  0  0  0
  2  4  1  0  0  0  0
  1  2  2  0  0  0  0
  3  2  1  0  0  0  0
 23  3  1  0  0  0  0
 24  3  1  0  0  0  0
 25  4  1  0  0  0  0
 26  5  1  0  0  0  0
 27  5  1  0  0  0  0
 28  6  1  0  0  0  0
 29  6  1  0  0  0  0
 30  7  1  0  0  0  0
 31  7  1  0  0  0  0
  8  4  1  0  0  0  0
 32  8  1  0  0  0  0
 33  8  1  0  0  0  0
 11 10  2  0  0  0  0
 12 10  1  0  0  0  0
 34 12  1  0  0  0  0
 35 12  1  0  0  0  0
 13 12  1  0  0  0  0
 14 13  1  0  0  0  0
 19 14  2  0  0  0  0
 15 14  1  0  0  0  0
 36 15  1  0  0  0  0
 16 15  2  0  0  0  0
 37 16  1  0  0  0  0
 17 13  1  0  0  0  0
 38 17  1  0  0  0  0
 18 17  2  0  0  0  0
 39 18  1  0  0  0  0
 20 19  1  0  0  0  0
 40 20  1  0  0  0  0
 21 16  1  0  0  0  0
 22 21  1  0  0  0  0
 41 22  1  0  0  0  0
 42 22  1  0  0  0  0
 43 22  1  0  0  0  0
  9  8  1  0  0  0  0
 19 18  1  0  0  0  0
 21 20  2  0  0  0  0
M  END
>  <FittedScore>
-33.96

$$$$
