A71EV2A-x7256a_lowest-energy
  FITTED

 50 53     0  0  0  0  0  0  0999 V2000
   10.6430   16.4401   28.4206 C    0  0  0  0  0  0  0  0  0  0  0  0
    9.1308   15.6104   27.8039 S    0  0  0  0  0  0  0  0  0  0  0  0
    9.3478   15.4506   26.0250 C    0  0  0  0  0  0  0  0  0  0  0  0
   10.5920   15.0498   25.5327 C    0  0  0  0  0  0  0  0  0  0  0  0
   10.8713   15.0455   24.1755 C    0  0  0  0  0  0  0  0  0  0  0  0
    9.9163   15.4779   23.2311 C    0  0  0  0  0  0  0  0  0  0  0  0
   10.2735   15.6081   21.7887 C    0  0  0  0  0  0  0  0  0  0  0  0
   11.6147   15.8659   21.4090 C    0  0  0  0  0  0  0  0  0  0  0  0
   11.9455   15.9373   20.0478 C    0  0  0  0  0  0  0  0  0  0  0  0
   11.0404   15.7900   19.0572 N    0  0  0  0  0  0  0  0  0  0  0  0
    9.7456   15.5802   19.4084 C    0  0  0  0  0  0  0  0  0  0  0  0
    9.3303   15.4793   20.7389 C    0  0  0  0  0  0  0  0  0  0  0  0
    8.6301   15.7889   23.7129 C    0  0  0  0  0  0  0  0  0  0  0  0
    8.3179   15.7158   25.0835 C    0  0  0  0  0  0  0  0  0  0  0  0
    6.8278   15.8264   25.4760 C    0  0  0  0  0  0  0  0  0  0  0  0
    6.2437   14.6041   26.2508 C    0  0  0  0  0  0  0  0  0  0  0  0
    5.7461   14.7762   27.3597 O    0  0  0  0  0  0  0  0  0  0  0  0
    6.1181   13.3411   25.6911 N    0  0  0  0  0  0  0  0  0  0  0  0
    5.3444   12.2181   26.2783 C    0  0  0  0  0  0  0  0  0  0  0  0
    6.0988   10.8532   26.4431 C    0  0  0  0  0  0  0  0  0  0  0  0
    5.0318    9.8519   26.8798 C    0  0  0  0  0  0  0  0  0  0  0  0
    4.7464    9.7894   28.1806 N    0  0  0  0  0  0  0  0  0  0  0  0
    4.4612    9.1413   26.0845 O    0  0  0  0  0  0  0  0  0  0  0  0
    6.8768   10.3810   25.1455 C    0  0  0  0  0  0  0  0  0  0  0  0
    7.5577   11.5358   24.4241 C    0  0  0  0  0  0  0  0  0  0  0  0
    8.2700   12.6154   25.1176 C    0  0  0  0  0  0  0  0  0  0  0  0
    6.9236   12.9226   24.5196 C    0  0  0  0  0  0  0  0  0  0  0  0
   10.4411   16.9372   29.3708 H    0  0  0  0  0  0  0  0  0  0  0  0
   10.9959   17.1976   27.7161 H    0  0  0  0  0  0  0  0  0  0  0  0
   11.4124   15.6811   28.5757 H    0  0  0  0  0  0  0  0  0  0  0  0
   11.3975   14.7199   26.1673 H    0  0  0  0  0  0  0  0  0  0  0  0
   11.8598   14.7129   23.8854 H    0  0  0  0  0  0  0  0  0  0  0  0
   12.4095   15.9957   22.1394 H    0  0  0  0  0  0  0  0  0  0  0  0
   12.9832   16.1310   19.8084 H    0  0  0  0  0  0  0  0  0  0  0  0
    9.0006   15.4649   18.6165 H    0  0  0  0  0  0  0  0  0  0  0  0
    8.2748   15.3002   20.9442 H    0  0  0  0  0  0  0  0  0  0  0  0
    7.8658   16.0998   23.0060 H    0  0  0  0  0  0  0  0  0  0  0  0
    6.2923   15.9484   24.5337 H    0  0  0  0  0  0  0  0  0  0  0  0
    6.6481   16.7499   26.0405 H    0  0  0  0  0  0  0  0  0  0  0  0
    4.5452   12.0763   25.5550 H    0  0  0  0  0  0  0  0  0  0  0  0
    4.8720   12.4791   27.2378 H    0  0  0  0  0  0  0  0  0  0  0  0
    6.8388   10.9354   27.2503 H    0  0  0  0  0  0  0  0  0  0  0  0
    5.2424   10.4028   28.8253 H    0  0  0  0  0  0  0  0  0  0  0  0
    3.8528    9.3558   28.3963 H    0  0  0  0  0  0  0  0  0  0  0  0
    6.1772   10.0459   24.3838 H    0  0  0  0  0  0  0  0  0  0  0  0
    7.5465    9.5396   25.3681 H    0  0  0  0  0  0  0  0  0  0  0  0
    8.1531   11.2186   23.5763 H    0  0  0  0  0  0  0  0  0  0  0  0
    9.1453   12.9237   24.6380 H    0  0  0  0  0  0  0  0  0  0  0  0
    8.3793   12.4478   26.1492 H    0  0  0  0  0  0  0  0  0  0  0  0
    7.0298   13.7997   23.9217 H    0  0  0  0  0  0  0  0  0  0  0  0
 14 15  1  0  0  0  0
 13 14  2  0  0  0  0
  6 13  1  0  0  0  0
  5  6  2  0  0  0  0
  4  5  1  0  0  0  0
  3  4  2  0  0  0  0
  2  3  1  0  0  0  0
  1  2  1  0  0  0  0
 28  1  1  0  0  0  0
 29  1  1  0  0  0  0
 30  1  1  0  0  0  0
 31  4  1  0  0  0  0
 32  5  1  0  0  0  0
  7  6  1  0  0  0  0
  8  7  2  0  0  0  0
  9  8  1  0  0  0  0
 33  8  1  0  0  0  0
 10  9  2  0  0  0  0
 34  9  1  0  0  0  0
 11 10  1  0  0  0  0
 12 11  2  0  0  0  0
 35 11  1  0  0  0  0
 36 12  1  0  0  0  0
 37 13  1  0  0  0  0
 16 15  1  0  0  0  0
 38 15  1  0  0  0  0
 39 15  1  0  0  0  0
 17 16  2  0  0  0  0
 18 16  1  0  0  0  0
 19 18  1  0  0  0  0
 20 19  1  0  0  0  0
 40 19  1  0  0  0  0
 41 19  1  0  0  0  0
 21 20  1  0  0  0  0
 24 20  1  0  0  0  0
 42 20  1  0  0  0  0
 22 21  1  0  0  0  0
 23 21  2  0  0  0  0
 43 22  1  0  0  0  0
 44 22  1  0  0  0  0
 45 24  1  0  0  0  0
 46 24  1  0  0  0  0
 25 24  1  0  0  0  0
 26 25  1  0  0  0  0
 47 25  1  0  0  0  0
 48 26  1  0  0  0  0
 49 26  1  0  0  0  0
 27 26  1  0  0  0  0
 50 27  1  0  0  0  0
 12  7  1  0  0  0  0
 14  3  1  0  0  0  0
 27 18  1  0  0  0  0
 27 25  1  0  0  0  0
M  END
>  <FittedScore>
-24.02

$$$$
