A71EV2A-x5559a_lowest-energy
  FITTED

 35 36     0  0  0  0  0  0  0999 V2000
    9.9280   16.7164   19.3305 O    0  0  0  0  0  0  0  0  0  0  0  0
   10.3726   15.6341   19.6714 C    0  0  0  0  0  0  0  0  0  0  0  0
   10.8768   14.7872   18.7614 N    0  0  0  0  0  0  0  0  0  0  0  0
   10.3365   15.0883   21.0950 C    0  0  0  0  0  0  0  0  0  0  0  0
   11.2957   15.8861   22.0202 C    0  0  0  0  0  0  0  0  0  0  0  0
   11.2551   15.3003   23.4493 C    0  0  0  0  0  0  0  0  0  0  0  0
    9.8059   15.2012   23.9970 C    0  0  0  0  0  0  0  0  0  0  0  0
    8.8933   15.0718   21.6762 C    0  0  0  0  0  0  0  0  0  0  0  0
    8.8238   14.5265   23.0694 N    0  0  0  0  0  0  0  0  0  0  0  0
    7.9084   13.5760   23.4515 C    0  0  0  0  0  0  0  0  0  0  0  0
    7.0622   13.1293   22.6897 O    0  0  0  0  0  0  0  0  0  0  0  0
    8.0067   13.1326   24.7294 O    0  0  0  0  0  0  0  0  0  0  0  0
    7.2681   12.0747   25.2289 C    0  0  0  0  0  0  0  0  0  0  0  0
    7.5959   10.7310   24.9417 C    0  0  0  0  0  0  0  0  0  0  0  0
    8.7332   10.3854   24.1208 C    0  0  0  0  0  0  0  0  0  0  0  0
    9.6371   10.1160   23.4855 N    0  0  0  0  0  0  0  0  0  0  0  0
    6.1582   12.3743   26.0276 C    0  0  0  0  0  0  0  0  0  0  0  0
    5.3599   11.3330   26.5263 C    0  0  0  0  0  0  0  0  0  0  0  0
    3.8213   11.7457   27.5557 BR   0  0  0  0  0  0  0  0  0  0  0  0
    5.6778    9.9965   26.2499 C    0  0  0  0  0  0  0  0  0  0  0  0
    6.7984    9.7016   25.4589 C    0  0  0  0  0  0  0  0  0  0  0  0
   11.0858   13.8375   19.0430 H    0  0  0  0  0  0  0  0  0  0  0  0
   10.9137   15.0381   17.7832 H    0  0  0  0  0  0  0  0  0  0  0  0
   10.6788   14.0453   21.0968 H    0  0  0  0  0  0  0  0  0  0  0  0
   12.3184   15.8444   21.6347 H    0  0  0  0  0  0  0  0  0  0  0  0
   11.0060   16.9394   22.0465 H    0  0  0  0  0  0  0  0  0  0  0  0
   11.7108   14.3057   23.4476 H    0  0  0  0  0  0  0  0  0  0  0  0
   11.8577   15.9185   24.1193 H    0  0  0  0  0  0  0  0  0  0  0  0
    9.8974   14.6926   24.9546 H    0  0  0  0  0  0  0  0  0  0  0  0
    9.4345   16.2037   24.2263 H    0  0  0  0  0  0  0  0  0  0  0  0
    8.2551   14.5181   20.9796 H    0  0  0  0  0  0  0  0  0  0  0  0
    8.4917   16.0887   21.6884 H    0  0  0  0  0  0  0  0  0  0  0  0
    5.9166   13.4171   26.2344 H    0  0  0  0  0  0  0  0  0  0  0  0
    5.0691    9.1798   26.6335 H    0  0  0  0  0  0  0  0  0  0  0  0
    7.0463    8.6626   25.2468 H    0  0  0  0  0  0  0  0  0  0  0  0
  9 10  1  0  0  0  0
  7  9  1  0  0  0  0
  6  7  1  0  0  0  0
  5  6  1  0  0  0  0
  4  5  1  0  0  0  0
  2  4  1  0  0  0  0
  1  2  2  0  0  0  0
  3  2  1  0  0  0  0
 22  3  1  0  0  0  0
 23  3  1  0  0  0  0
 24  4  1  0  0  0  0
 25  5  1  0  0  0  0
 26  5  1  0  0  0  0
 27  6  1  0  0  0  0
 28  6  1  0  0  0  0
 29  7  1  0  0  0  0
 30  7  1  0  0  0  0
  8  4  1  0  0  0  0
 31  8  1  0  0  0  0
 32  8  1  0  0  0  0
 11 10  2  0  0  0  0
 12 10  1  0  0  0  0
 13 12  1  0  0  0  0
 14 13  1  0  0  0  0
 21 14  2  0  0  0  0
 15 14  1  0  0  0  0
 16 15  3  0  0  0  0
 17 13  2  0  0  0  0
 33 17  1  0  0  0  0
 18 17  1  0  0  0  0
 19 18  1  0  0  0  0
 20 18  2  0  0  0  0
 34 20  1  0  0  0  0
 35 21  1  0  0  0  0
  9  8  1  0  0  0  0
 21 20  1  0  0  0  0
M  END
>  <FittedScore>
-31.61

$$$$
