A71EV2A-x5559a_best-RMSD
  FITTED

 35 36     0  0  0  0  0  0  0999 V2000
    9.8650   16.7155   19.2821 O    0  0  0  0  0  0  0  0  0  0  0  0
   10.3214   15.6429   19.6269 C    0  0  0  0  0  0  0  0  0  0  0  0
   10.8371   14.7808   18.7305 N    0  0  0  0  0  0  0  0  0  0  0  0
   10.2873   15.1304   21.0591 C    0  0  0  0  0  0  0  0  0  0  0  0
   11.2881   15.9056   21.9517 C    0  0  0  0  0  0  0  0  0  0  0  0
   11.2639   15.3363   23.3910 C    0  0  0  0  0  0  0  0  0  0  0  0
    9.8225   15.2457   23.9708 C    0  0  0  0  0  0  0  0  0  0  0  0
    8.8587   15.1447   21.6671 C    0  0  0  0  0  0  0  0  0  0  0  0
    8.8192   14.5823   23.0571 N    0  0  0  0  0  0  0  0  0  0  0  0
    7.9173   13.6211   23.4410 C    0  0  0  0  0  0  0  0  0  0  0  0
    7.0860   13.1492   22.6787 O    0  0  0  0  0  0  0  0  0  0  0  0
    8.0007   13.2017   24.7329 O    0  0  0  0  0  0  0  0  0  0  0  0
    7.2633   12.1416   25.2371 C    0  0  0  0  0  0  0  0  0  0  0  0
    7.5946   10.7969   24.9538 C    0  0  0  0  0  0  0  0  0  0  0  0
    8.7236   10.4475   24.1259 C    0  0  0  0  0  0  0  0  0  0  0  0
    9.6139   10.1647   23.4826 N    0  0  0  0  0  0  0  0  0  0  0  0
    6.1510   12.4363   26.0367 C    0  0  0  0  0  0  0  0  0  0  0  0
    5.3528   11.3922   26.5292 C    0  0  0  0  0  0  0  0  0  0  0  0
    3.7898   11.8068   27.5216 BR   0  0  0  0  0  0  0  0  0  0  0  0
    5.6817   10.0550   26.2599 C    0  0  0  0  0  0  0  0  0  0  0  0
    6.8046    9.7625   25.4752 C    0  0  0  0  0  0  0  0  0  0  0  0
   11.0655   13.8311   19.0194 H    0  0  0  0  0  0  0  0  0  0  0  0
   10.8519   15.0194   17.7474 H    0  0  0  0  0  0  0  0  0  0  0  0
   10.6012   14.0791   21.0590 H    0  0  0  0  0  0  0  0  0  0  0  0
   12.3003   15.8282   21.5456 H    0  0  0  0  0  0  0  0  0  0  0  0
   11.0350   16.9682   21.9736 H    0  0  0  0  0  0  0  0  0  0  0  0
   11.7213   14.3420   23.3981 H    0  0  0  0  0  0  0  0  0  0  0  0
   11.8782   15.9667   24.0393 H    0  0  0  0  0  0  0  0  0  0  0  0
    9.9190   14.7418   24.9353 H    0  0  0  0  0  0  0  0  0  0  0  0
    9.4656   16.2544   24.2063 H    0  0  0  0  0  0  0  0  0  0  0  0
    8.1919   14.6060   20.9892 H    0  0  0  0  0  0  0  0  0  0  0  0
    8.4696   16.1661   21.7072 H    0  0  0  0  0  0  0  0  0  0  0  0
    5.9061   13.4743   26.2473 H    0  0  0  0  0  0  0  0  0  0  0  0
    5.0757    9.2347   26.6458 H    0  0  0  0  0  0  0  0  0  0  0  0
    7.0516    8.7266   25.2581 H    0  0  0  0  0  0  0  0  0  0  0  0
  9 10  1  0  0  0  0
  7  9  1  0  0  0  0
  6  7  1  0  0  0  0
  5  6  1  0  0  0  0
  4  5  1  0  0  0  0
  2  4  1  0  0  0  0
  1  2  2  0  0  0  0
  3  2  1  0  0  0  0
 22  3  1  0  0  0  0
 23  3  1  0  0  0  0
 24  4  1  0  0  0  0
 25  5  1  0  0  0  0
 26  5  1  0  0  0  0
 27  6  1  0  0  0  0
 28  6  1  0  0  0  0
 29  7  1  0  0  0  0
 30  7  1  0  0  0  0
  8  4  1  0  0  0  0
 31  8  1  0  0  0  0
 32  8  1  0  0  0  0
 11 10  2  0  0  0  0
 12 10  1  0  0  0  0
 13 12  1  0  0  0  0
 14 13  1  0  0  0  0
 21 14  2  0  0  0  0
 15 14  1  0  0  0  0
 16 15  3  0  0  0  0
 17 13  2  0  0  0  0
 33 17  1  0  0  0  0
 18 17  1  0  0  0  0
 19 18  1  0  0  0  0
 20 18  2  0  0  0  0
 34 20  1  0  0  0  0
 35 21  1  0  0  0  0
  9  8  1  0  0  0  0
 21 20  1  0  0  0  0
M  END
>  <FittedScore>
-31.63

$$$$
