A71EV2A-x3175a_lowest-energy
  FITTED

 35 37     0  0  0  0  0  0  0999 V2000
    5.0976   11.6844   27.2354 O    0  0  0  0  0  0  0  0  0  0  0  0
    5.6270   10.7144   26.7258 C    0  0  0  0  0  0  0  0  0  0  0  0
    6.8454   10.7992   25.8227 C    0  0  0  0  0  0  0  0  0  0  0  0
    7.5898   11.9516   25.5025 C    0  0  0  0  0  0  0  0  0  0  0  0
    7.4603   13.2898   25.9248 C    0  0  0  0  0  0  0  0  0  0  0  0
    8.3730   14.2423   25.4352 C    0  0  0  0  0  0  0  0  0  0  0  0
    9.3936   13.8735   24.5353 C    0  0  0  0  0  0  0  0  0  0  0  0
    9.5205   12.5389   24.1139 C    0  0  0  0  0  0  0  0  0  0  0  0
    8.6057   11.5985   24.6166 C    0  0  0  0  0  0  0  0  0  0  0  0
    8.4838   10.2626   24.4049 N    0  0  0  0  0  0  0  0  0  0  0  0
    9.2677    9.5094   23.4112 C    0  0  0  0  0  0  0  0  0  0  0  0
    7.4383    9.7440   25.1103 C    0  0  0  0  0  0  0  0  0  0  0  0
    5.1265    9.4611   26.9045 N    0  0  0  0  0  0  0  0  0  0  0  0
    3.8998    9.0831   27.6391 C    0  0  0  0  0  0  0  0  0  0  0  0
    3.3394    7.7689   27.1010 C    0  0  0  0  0  0  0  0  0  0  0  0
    2.6898    6.8313   27.8755 C    0  0  0  0  0  0  0  0  0  0  0  0
    3.4177    7.3632   25.7736 O    0  0  0  0  0  0  0  0  0  0  0  0
    2.8487    6.0648   25.6992 N    0  0  0  0  0  0  0  0  0  0  0  0
    2.3506    5.7851   27.0533 C    0  0  0  0  0  0  0  0  0  0  0  0
    1.5374    4.5704   27.4558 C    0  0  0  0  0  0  0  0  0  0  0  0
    6.6913   13.6100   26.6206 H    0  0  0  0  0  0  0  0  0  0  0  0
    8.2885   15.2769   25.7522 H    0  0  0  0  0  0  0  0  0  0  0  0
   10.0883   14.6244   24.1616 H    0  0  0  0  0  0  0  0  0  0  0  0
   10.3065   12.2530   23.4199 H    0  0  0  0  0  0  0  0  0  0  0  0
    9.0349    8.4401   23.4181 H    0  0  0  0  0  0  0  0  0  0  0  0
   10.3407    9.5988   23.6047 H    0  0  0  0  0  0  0  0  0  0  0  0
    9.0867    9.8803   22.3976 H    0  0  0  0  0  0  0  0  0  0  0  0
    7.1216    8.7030   25.0962 H    0  0  0  0  0  0  0  0  0  0  0  0
    5.6115    8.6829   26.4708 H    0  0  0  0  0  0  0  0  0  0  0  0
    4.1385    9.0020   28.7033 H    0  0  0  0  0  0  0  0  0  0  0  0
    3.1333    9.8550   27.5267 H    0  0  0  0  0  0  0  0  0  0  0  0
    2.4817    6.9093   28.9406 H    0  0  0  0  0  0  0  0  0  0  0  0
    1.2839    3.9603   26.5864 H    0  0  0  0  0  0  0  0  0  0  0  0
    0.6073    4.8748   27.9349 H    0  0  0  0  0  0  0  0  0  0  0  0
    2.1011    3.9530   28.1595 H    0  0  0  0  0  0  0  0  0  0  0  0
  2  1  2  0  0  0  0
  3  2  1  0  0  0  0
 12  3  2  0  0  0  0
  4  3  1  0  0  0  0
  5  4  1  0  0  0  0
 21  5  1  0  0  0  0
  6  5  2  0  0  0  0
 22  6  1  0  0  0  0
  7  6  1  0  0  0  0
 23  7  1  0  0  0  0
  8  7  2  0  0  0  0
 24  8  1  0  0  0  0
  9  8  1  0  0  0  0
 10  9  1  0  0  0  0
 11 10  1  0  0  0  0
 25 11  1  0  0  0  0
 26 11  1  0  0  0  0
 27 11  1  0  0  0  0
 28 12  1  0  0  0  0
 13  2  1  0  0  0  0
 29 13  1  0  0  0  0
 14 13  1  0  0  0  0
 30 14  1  0  0  0  0
 31 14  1  0  0  0  0
 15 14  1  0  0  0  0
 16 15  2  0  0  0  0
 32 16  1  0  0  0  0
 17 15  1  0  0  0  0
 18 17  1  0  0  0  0
 19 16  1  0  0  0  0
 20 19  1  0  0  0  0
 33 20  1  0  0  0  0
 34 20  1  0  0  0  0
 35 20  1  0  0  0  0
  9  4  2  0  0  0  0
 12 10  1  0  0  0  0
 19 18  2  0  0  0  0
M  END
>  <FittedScore>
-34.31

$$$$
