A71EV2A-x3175a_best-RMSD
  FITTED

 35 37     0  0  0  0  0  0  0999 V2000
    5.7878   12.0444   26.8315 O    0  0  0  0  0  0  0  0  0  0  0  0
    6.2041   10.9764   26.4190 C    0  0  0  0  0  0  0  0  0  0  0  0
    7.3462   10.8600   25.4292 C    0  0  0  0  0  0  0  0  0  0  0  0
    8.1175   11.8978   24.8682 C    0  0  0  0  0  0  0  0  0  0  0  0
    8.0774   13.2933   25.0460 C    0  0  0  0  0  0  0  0  0  0  0  0
    8.9807   14.0935   24.3198 C    0  0  0  0  0  0  0  0  0  0  0  0
    9.9100   13.5157   23.4307 C    0  0  0  0  0  0  0  0  0  0  0  0
    9.9528   12.1237   23.2615 C    0  0  0  0  0  0  0  0  0  0  0  0
    9.0482   11.3410   23.9938 C    0  0  0  0  0  0  0  0  0  0  0  0
    8.8499   10.0011   24.0319 N    0  0  0  0  0  0  0  0  0  0  0  0
    9.5026    9.0281   23.1451 C    0  0  0  0  0  0  0  0  0  0  0  0
    7.8338    9.6714   24.8717 C    0  0  0  0  0  0  0  0  0  0  0  0
    5.6509    9.7873   26.7888 N    0  0  0  0  0  0  0  0  0  0  0  0
    4.4861    9.6041   27.6696 C    0  0  0  0  0  0  0  0  0  0  0  0
    4.9471    9.2269   29.0588 C    0  0  0  0  0  0  0  0  0  0  0  0
    4.6123    8.0435   29.6828 C    0  0  0  0  0  0  0  0  0  0  0  0
    5.7213   10.0570   29.8581 O    0  0  0  0  0  0  0  0  0  0  0  0
    5.8697    9.3674   31.0947 N    0  0  0  0  0  0  0  0  0  0  0  0
    5.1540    8.0936   30.9366 C    0  0  0  0  0  0  0  0  0  0  0  0
    5.0825    6.9835   31.9664 C    0  0  0  0  0  0  0  0  0  0  0  0
    7.3682   13.7701   25.7139 H    0  0  0  0  0  0  0  0  0  0  0  0
    8.9583   15.1737   24.4419 H    0  0  0  0  0  0  0  0  0  0  0  0
   10.6001   14.1495   22.8790 H    0  0  0  0  0  0  0  0  0  0  0  0
   10.6693   11.6739   22.5773 H    0  0  0  0  0  0  0  0  0  0  0  0
    9.4444    9.3381   22.0989 H    0  0  0  0  0  0  0  0  0  0  0  0
    9.0451    8.0367   23.2023 H    0  0  0  0  0  0  0  0  0  0  0  0
   10.5584    8.9077   23.3994 H    0  0  0  0  0  0  0  0  0  0  0  0
    7.4835    8.6615   25.0628 H    0  0  0  0  0  0  0  0  0  0  0  0
    6.0163    8.9280   26.3892 H    0  0  0  0  0  0  0  0  0  0  0  0
    3.8763   10.5091   27.7249 H    0  0  0  0  0  0  0  0  0  0  0  0
    3.8516    8.8240   27.2434 H    0  0  0  0  0  0  0  0  0  0  0  0
    4.0262    7.2271   29.2676 H    0  0  0  0  0  0  0  0  0  0  0  0
    5.8191    6.2129   31.7306 H    0  0  0  0  0  0  0  0  0  0  0  0
    4.0934    6.5191   31.9716 H    0  0  0  0  0  0  0  0  0  0  0  0
    5.2895    7.3571   32.9725 H    0  0  0  0  0  0  0  0  0  0  0  0
  2  1  2  0  0  0  0
  3  2  1  0  0  0  0
 12  3  2  0  0  0  0
  4  3  1  0  0  0  0
  5  4  1  0  0  0  0
 21  5  1  0  0  0  0
  6  5  2  0  0  0  0
 22  6  1  0  0  0  0
  7  6  1  0  0  0  0
 23  7  1  0  0  0  0
  8  7  2  0  0  0  0
 24  8  1  0  0  0  0
  9  8  1  0  0  0  0
 10  9  1  0  0  0  0
 11 10  1  0  0  0  0
 25 11  1  0  0  0  0
 26 11  1  0  0  0  0
 27 11  1  0  0  0  0
 28 12  1  0  0  0  0
 13  2  1  0  0  0  0
 29 13  1  0  0  0  0
 14 13  1  0  0  0  0
 30 14  1  0  0  0  0
 31 14  1  0  0  0  0
 15 14  1  0  0  0  0
 16 15  2  0  0  0  0
 32 16  1  0  0  0  0
 17 15  1  0  0  0  0
 18 17  1  0  0  0  0
 19 16  1  0  0  0  0
 20 19  1  0  0  0  0
 33 20  1  0  0  0  0
 34 20  1  0  0  0  0
 35 20  1  0  0  0  0
  9  4  2  0  0  0  0
 12 10  1  0  0  0  0
 19 18  2  0  0  0  0
M  END
>  <FittedScore>
-38.63

$$$$
