A71EV2A-x7589a_best-RMSD
  FITTED

 58 60     0  0  0  0  0  0  0999 V2000
   -0.0033   14.3422   22.8458 C    0  0  0  0  0  0  0  0  0  0  0  0
    1.3008   13.9168   23.3367 O    0  0  0  0  0  0  0  0  0  0  0  0
    1.7873   14.3347   24.5346 C    0  0  0  0  0  0  0  0  0  0  0  0
    1.2222   15.1339   25.2591 O    0  0  0  0  0  0  0  0  0  0  0  0
    3.0061   13.8242   24.8323 N    0  0  0  0  0  0  0  0  0  0  0  0
    3.8537   14.1959   25.9923 C    0  0  0  0  0  0  0  0  0  0  0  0
    3.5232   13.4217   27.2925 C    0  0  0  0  0  0  0  0  0  0  0  0
    4.8793   12.9797   27.8729 C    0  0  0  0  0  0  0  0  0  0  0  0
    5.7651   12.8858   26.6909 N    0  0  0  0  0  0  0  0  0  0  0  0
    6.3844   11.7131   26.2500 C    0  0  0  0  0  0  0  0  0  0  0  0
    5.7481   10.5360   26.5330 N    0  0  0  0  0  0  0  0  0  0  0  0
    6.2697    9.3792   26.0592 C    0  0  0  0  0  0  0  0  0  0  0  0
    7.3834    9.2969   25.2892 N    0  0  0  0  0  0  0  0  0  0  0  0
    8.0512   10.4430   24.9939 C    0  0  0  0  0  0  0  0  0  0  0  0
    9.4948   10.3134   23.9365 S    0  0  0  0  0  0  0  0  0  0  0  0
    9.6441    8.5830   23.4056 C    0  0  0  0  0  0  0  0  0  0  0  0
    7.6041   11.7013   25.4923 C    0  0  0  0  0  0  0  0  0  0  0  0
    8.4234   12.9760   25.1848 C    0  0  0  0  0  0  0  0  0  0  0  0
    8.2439   13.5190   23.7526 C    0  0  0  0  0  0  0  0  0  0  0  0
    7.4706   12.9519   22.9936 O    0  0  0  0  0  0  0  0  0  0  0  0
    8.9803   14.6091   23.3346 N    0  0  0  0  0  0  0  0  0  0  0  0
    9.9810   15.3806   24.1481 C    0  0  0  0  0  0  0  0  0  0  0  0
   11.4093   15.3167   23.5427 C    0  0  0  0  0  0  0  0  0  0  0  0
   11.4277   15.7773   22.0592 C    0  0  0  0  0  0  0  0  0  0  0  0
   10.3312   15.0404   21.2338 C    0  0  0  0  0  0  0  0  0  0  0  0
   10.3180   15.5426   19.7934 C    0  0  0  0  0  0  0  0  0  0  0  0
   10.8792   14.7135   18.8913 N    0  0  0  0  0  0  0  0  0  0  0  0
    9.7693   16.5707   19.4383 O    0  0  0  0  0  0  0  0  0  0  0  0
    8.9392   15.1429   21.9319 C    0  0  0  0  0  0  0  0  0  0  0  0
    5.3488   13.9241   25.7262 C    0  0  0  0  0  0  0  0  0  0  0  0
   -0.1903   13.8688   21.8810 H    0  0  0  0  0  0  0  0  0  0  0  0
   -0.0390   15.4271   22.7190 H    0  0  0  0  0  0  0  0  0  0  0  0
   -0.7893   14.0284   23.5378 H    0  0  0  0  0  0  0  0  0  0  0  0
    3.4396   13.1925   24.1622 H    0  0  0  0  0  0  0  0  0  0  0  0
    3.7351   15.2686   26.1848 H    0  0  0  0  0  0  0  0  0  0  0  0
    2.8983   12.5426   27.0980 H    0  0  0  0  0  0  0  0  0  0  0  0
    2.9825   14.0556   28.0027 H    0  0  0  0  0  0  0  0  0  0  0  0
    4.7614   12.0599   28.4523 H    0  0  0  0  0  0  0  0  0  0  0  0
    5.2457   13.7372   28.5722 H    0  0  0  0  0  0  0  0  0  0  0  0
    5.7472    8.4569   26.2935 H    0  0  0  0  0  0  0  0  0  0  0  0
    9.7477    7.9316   24.2741 H    0  0  0  0  0  0  0  0  0  0  0  0
   10.5293    8.4803   22.7769 H    0  0  0  0  0  0  0  0  0  0  0  0
    8.7629    8.2941   22.8288 H    0  0  0  0  0  0  0  0  0  0  0  0
    9.4766   12.7575   25.3715 H    0  0  0  0  0  0  0  0  0  0  0  0
    8.2027   13.7578   25.9118 H    0  0  0  0  0  0  0  0  0  0  0  0
   10.0534   15.0524   25.1830 H    0  0  0  0  0  0  0  0  0  0  0  0
    9.6602   16.4256   24.2111 H    0  0  0  0  0  0  0  0  0  0  0  0
   11.7875   14.2921   23.6113 H    0  0  0  0  0  0  0  0  0  0  0  0
   12.0842   15.9456   24.1282 H    0  0  0  0  0  0  0  0  0  0  0  0
   12.4103   15.5622   21.6307 H    0  0  0  0  0  0  0  0  0  0  0  0
   11.2880   16.8636   22.0059 H    0  0  0  0  0  0  0  0  0  0  0  0
   10.5895   13.9735   21.2346 H    0  0  0  0  0  0  0  0  0  0  0  0
   10.8708   14.9660   17.9099 H    0  0  0  0  0  0  0  0  0  0  0  0
   11.1076   13.7573   19.1659 H    0  0  0  0  0  0  0  0  0  0  0  0
    8.2074   14.6334   21.3004 H    0  0  0  0  0  0  0  0  0  0  0  0
    8.6011   16.1848   21.9599 H    0  0  0  0  0  0  0  0  0  0  0  0
    5.5017   13.6205   24.6875 H    0  0  0  0  0  0  0  0  0  0  0  0
    5.9237   14.8436   25.8670 H    0  0  0  0  0  0  0  0  0  0  0  0
 18 19  1  0  0  0  0
 17 18  1  0  0  0  0
 14 17  2  0  0  0  0
 13 14  1  0  0  0  0
 12 13  2  0  0  0  0
 11 12  1  0  0  0  0
 10 11  2  0  0  0  0
  9 10  1  0  0  0  0
  8  9  1  0  0  0  0
  7  8  1  0  0  0  0
  6  7  1  0  0  0  0
  5  6  1  0  0  0  0
  3  5  1  0  0  0  0
  2  3  1  0  0  0  0
  1  2  1  0  0  0  0
 31  1  1  0  0  0  0
 32  1  1  0  0  0  0
 33  1  1  0  0  0  0
  4  3  2  0  0  0  0
 34  5  1  0  0  0  0
 35  6  1  0  0  0  0
 36  7  1  0  0  0  0
 37  7  1  0  0  0  0
 38  8  1  0  0  0  0
 39  8  1  0  0  0  0
 30  9  1  0  0  0  0
 40 12  1  0  0  0  0
 15 14  1  0  0  0  0
 16 15  1  0  0  0  0
 41 16  1  0  0  0  0
 42 16  1  0  0  0  0
 43 16  1  0  0  0  0
 44 18  1  0  0  0  0
 45 18  1  0  0  0  0
 20 19  2  0  0  0  0
 21 19  1  0  0  0  0
 22 21  1  0  0  0  0
 23 22  1  0  0  0  0
 46 22  1  0  0  0  0
 47 22  1  0  0  0  0
 24 23  1  0  0  0  0
 48 23  1  0  0  0  0
 49 23  1  0  0  0  0
 25 24  1  0  0  0  0
 50 24  1  0  0  0  0
 51 24  1  0  0  0  0
 26 25  1  0  0  0  0
 29 25  1  0  0  0  0
 52 25  1  0  0  0  0
 27 26  1  0  0  0  0
 28 26  2  0  0  0  0
 53 27  1  0  0  0  0
 54 27  1  0  0  0  0
 55 29  1  0  0  0  0
 56 29  1  0  0  0  0
 57 30  1  0  0  0  0
 58 30  1  0  0  0  0
 17 10  1  0  0  0  0
 29 21  1  0  0  0  0
 30  6  1  0  0  0  0
M  END
>  <FittedScore>
-37.82

$$$$
