A71EV2A-x4570a_best-RMSD
  FITTED

 38 39     0  0  0  0  0  0  0999 V2000
   10.2869    9.0848   23.6342 F    0  0  0  0  0  0  0  0  0  0  0  0
    9.2453    9.7335   24.1768 C    0  0  0  0  0  0  0  0  0  0  0  0
    8.1228    9.0287   24.6314 C    0  0  0  0  0  0  0  0  0  0  0  0
    7.0632    9.6534   25.2216 N    0  0  0  0  0  0  0  0  0  0  0  0
    7.0944   11.0090   25.3527 C    0  0  0  0  0  0  0  0  0  0  0  0
    9.2745   11.1256   24.3019 C    0  0  0  0  0  0  0  0  0  0  0  0
    8.1778   11.7951   24.8841 C    0  0  0  0  0  0  0  0  0  0  0  0
    8.1676   13.3373   24.8701 C    0  0  0  0  0  0  0  0  0  0  0  0
    7.1607   14.0664   25.8062 C    0  0  0  0  0  0  0  0  0  0  0  0
    7.9762   13.8374   23.4136 C    0  0  0  0  0  0  0  0  0  0  0  0
    7.1866   13.2399   22.6985 O    0  0  0  0  0  0  0  0  0  0  0  0
    8.6800   14.9309   22.9413 N    0  0  0  0  0  0  0  0  0  0  0  0
    8.6872   15.3370   21.4956 C    0  0  0  0  0  0  0  0  0  0  0  0
   10.1264   15.5631   20.9254 C    0  0  0  0  0  0  0  0  0  0  0  0
   10.1080   15.9521   19.4456 C    0  0  0  0  0  0  0  0  0  0  0  0
    9.6220   16.9794   19.0108 O    0  0  0  0  0  0  0  0  0  0  0  0
   10.5315   14.9907   18.6065 N    0  0  0  0  0  0  0  0  0  0  0  0
   10.9218   16.5915   21.7728 C    0  0  0  0  0  0  0  0  0  0  0  0
   10.8804   16.2158   23.2729 C    0  0  0  0  0  0  0  0  0  0  0  0
    9.4257   15.9470   23.7590 C    0  0  0  0  0  0  0  0  0  0  0  0
    8.1066    7.9424   24.5445 H    0  0  0  0  0  0  0  0  0  0  0  0
    6.2374   11.4812   25.8256 H    0  0  0  0  0  0  0  0  0  0  0  0
   10.1340   11.6753   23.9286 H    0  0  0  0  0  0  0  0  0  0  0  0
    9.1635   13.5954   25.2372 H    0  0  0  0  0  0  0  0  0  0  0  0
    7.2636   13.7048   26.8306 H    0  0  0  0  0  0  0  0  0  0  0  0
    6.1322   13.9064   25.4765 H    0  0  0  0  0  0  0  0  0  0  0  0
    7.3306   15.1468   25.8237 H    0  0  0  0  0  0  0  0  0  0  0  0
    8.2064   14.5893   20.8612 H    0  0  0  0  0  0  0  0  0  0  0  0
    8.0815   16.2413   21.3817 H    0  0  0  0  0  0  0  0  0  0  0  0
   10.6476   14.6051   21.0363 H    0  0  0  0  0  0  0  0  0  0  0  0
   10.5546   15.1610   17.6077 H    0  0  0  0  0  0  0  0  0  0  0  0
   10.7464   14.0581   18.9491 H    0  0  0  0  0  0  0  0  0  0  0  0
   11.9589   16.6304   21.4286 H    0  0  0  0  0  0  0  0  0  0  0  0
   10.5108   17.5945   21.6435 H    0  0  0  0  0  0  0  0  0  0  0  0
   11.5013   15.3324   23.4475 H    0  0  0  0  0  0  0  0  0  0  0  0
   11.3215   17.0252   23.8624 H    0  0  0  0  0  0  0  0  0  0  0  0
    9.4794   15.7174   24.8181 H    0  0  0  0  0  0  0  0  0  0  0  0
    8.8582   16.8815   23.7394 H    0  0  0  0  0  0  0  0  0  0  0  0
 10 12  1  0  0  0  0
  8 10  1  0  0  0  0
  9  8  1  0  0  0  0
  7  8  1  0  0  0  0
  5  7  1  0  0  0  0
  4  5  2  0  0  0  0
  3  4  1  0  0  0  0
  2  3  2  0  0  0  0
  1  2  1  0  0  0  0
 21  3  1  0  0  0  0
 22  5  1  0  0  0  0
  6  2  1  0  0  0  0
 23  6  1  0  0  0  0
 24  8  1  0  0  0  0
 25  9  1  0  0  0  0
 26  9  1  0  0  0  0
 27  9  1  0  0  0  0
 11 10  2  0  0  0  0
 20 12  1  0  0  0  0
 13 12  1  0  0  0  0
 28 13  1  0  0  0  0
 29 13  1  0  0  0  0
 14 13  1  0  0  0  0
 15 14  1  0  0  0  0
 30 14  1  0  0  0  0
 16 15  2  0  0  0  0
 17 15  1  0  0  0  0
 31 17  1  0  0  0  0
 32 17  1  0  0  0  0
 18 14  1  0  0  0  0
 33 18  1  0  0  0  0
 34 18  1  0  0  0  0
 19 18  1  0  0  0  0
 35 19  1  0  0  0  0
 36 19  1  0  0  0  0
 37 20  1  0  0  0  0
 38 20  1  0  0  0  0
  7  6  2  0  0  0  0
 20 19  1  0  0  0  0
M  END
>  <FittedScore>
-32.63

$$$$
