A71EV2A-x4570a_lowest-energy
  FITTED

 38 39     0  0  0  0  0  0  0999 V2000
   10.3524    8.9847   23.6481 F    0  0  0  0  0  0  0  0  0  0  0  0
    9.2956    9.6385   24.1543 C    0  0  0  0  0  0  0  0  0  0  0  0
    8.1689    8.9387   24.5998 C    0  0  0  0  0  0  0  0  0  0  0  0
    7.1103    9.5625   25.1881 N    0  0  0  0  0  0  0  0  0  0  0  0
    7.1369   10.9203   25.3070 C    0  0  0  0  0  0  0  0  0  0  0  0
    9.3316   11.0296   24.2880 C    0  0  0  0  0  0  0  0  0  0  0  0
    8.2324   11.7000   24.8640 C    0  0  0  0  0  0  0  0  0  0  0  0
    8.2538   13.2393   24.8954 C    0  0  0  0  0  0  0  0  0  0  0  0
    7.3035   13.9574   25.8969 C    0  0  0  0  0  0  0  0  0  0  0  0
    8.0418   13.8035   23.4696 C    0  0  0  0  0  0  0  0  0  0  0  0
    7.2092   13.2639   22.7502 O    0  0  0  0  0  0  0  0  0  0  0  0
    8.7857   14.8771   23.0133 N    0  0  0  0  0  0  0  0  0  0  0  0
    8.7854   15.3227   21.5771 C    0  0  0  0  0  0  0  0  0  0  0  0
   10.2198   15.5319   20.9901 C    0  0  0  0  0  0  0  0  0  0  0  0
   10.1826   15.9800   19.5262 C    0  0  0  0  0  0  0  0  0  0  0  0
    9.7154   17.0360   19.1377 O    0  0  0  0  0  0  0  0  0  0  0  0
   10.5683   15.0423   18.6396 N    0  0  0  0  0  0  0  0  0  0  0  0
   11.0636   16.5032   21.8683 C    0  0  0  0  0  0  0  0  0  0  0  0
   11.0424   16.0521   23.3513 C    0  0  0  0  0  0  0  0  0  0  0  0
    9.5858   15.8411   23.8531 C    0  0  0  0  0  0  0  0  0  0  0  0
    8.1406    7.8548   24.4967 H    0  0  0  0  0  0  0  0  0  0  0  0
    6.2598   11.3994   25.7327 H    0  0  0  0  0  0  0  0  0  0  0  0
   10.2035   11.5754   23.9369 H    0  0  0  0  0  0  0  0  0  0  0  0
    9.2675   13.4505   25.2464 H    0  0  0  0  0  0  0  0  0  0  0  0
    6.2570   13.8258   25.6122 H    0  0  0  0  0  0  0  0  0  0  0  0
    7.4978   15.0326   25.9328 H    0  0  0  0  0  0  0  0  0  0  0  0
    7.4411   13.5683   26.9078 H    0  0  0  0  0  0  0  0  0  0  0  0
    8.2796   14.6005   20.9306 H    0  0  0  0  0  0  0  0  0  0  0  0
    8.2029   16.2453   21.4932 H    0  0  0  0  0  0  0  0  0  0  0  0
   10.7232   14.5582   21.0516 H    0  0  0  0  0  0  0  0  0  0  0  0
   10.5398   15.2421   17.6451 H    0  0  0  0  0  0  0  0  0  0  0  0
   10.7820   14.0984   18.9578 H    0  0  0  0  0  0  0  0  0  0  0  0
   12.0961   16.5304   21.5142 H    0  0  0  0  0  0  0  0  0  0  0  0
   10.6744   17.5251   21.7906 H    0  0  0  0  0  0  0  0  0  0  0  0
   11.6051   15.1256   23.4750 H    0  0  0  0  0  0  0  0  0  0  0  0
   11.5255   16.8098   23.9736 H    0  0  0  0  0  0  0  0  0  0  0  0
    9.6573   15.5667   24.9000 H    0  0  0  0  0  0  0  0  0  0  0  0
    9.0763   16.8049   23.8574 H    0  0  0  0  0  0  0  0  0  0  0  0
 10 12  1  0  0  0  0
  8 10  1  0  0  0  0
  9  8  1  0  0  0  0
  7  8  1  0  0  0  0
  5  7  1  0  0  0  0
  4  5  2  0  0  0  0
  3  4  1  0  0  0  0
  2  3  2  0  0  0  0
  1  2  1  0  0  0  0
 21  3  1  0  0  0  0
 22  5  1  0  0  0  0
  6  2  1  0  0  0  0
 23  6  1  0  0  0  0
 24  8  1  0  0  0  0
 25  9  1  0  0  0  0
 26  9  1  0  0  0  0
 27  9  1  0  0  0  0
 11 10  2  0  0  0  0
 20 12  1  0  0  0  0
 13 12  1  0  0  0  0
 28 13  1  0  0  0  0
 29 13  1  0  0  0  0
 14 13  1  0  0  0  0
 15 14  1  0  0  0  0
 30 14  1  0  0  0  0
 16 15  2  0  0  0  0
 17 15  1  0  0  0  0
 31 17  1  0  0  0  0
 32 17  1  0  0  0  0
 18 14  1  0  0  0  0
 33 18  1  0  0  0  0
 34 18  1  0  0  0  0
 19 18  1  0  0  0  0
 35 19  1  0  0  0  0
 36 19  1  0  0  0  0
 37 20  1  0  0  0  0
 38 20  1  0  0  0  0
  7  6  2  0  0  0  0
 20 19  1  0  0  0  0
M  END
>  <FittedScore>
-32.76

$$$$
