A71EV2A-x7580b_lowest-energy
  FITTED

 47 49     0  0  0  0  0  0  0999 V2000
    9.4420    8.8711   23.3877 C    0  0  0  0  0  0  0  0  0  0  0  0
    9.4558   10.5455   24.1150 S    0  0  0  0  0  0  0  0  0  0  0  0
    7.9290   10.8216   25.0081 C    0  0  0  0  0  0  0  0  0  0  0  0
    7.2752    9.6644   25.3080 N    0  0  0  0  0  0  0  0  0  0  0  0
    6.1203    9.7574   25.9928 C    0  0  0  0  0  0  0  0  0  0  0  0
    5.6472   10.9276   26.4680 N    0  0  0  0  0  0  0  0  0  0  0  0
    6.3123   12.0766   26.3393 C    0  0  0  0  0  0  0  0  0  0  0  0
    5.8918   13.1429   27.1461 N    0  0  0  0  0  0  0  0  0  0  0  0
    6.8262   13.8493   28.0660 C    0  0  0  0  0  0  0  0  0  0  0  0
    4.5178   13.6936   27.1159 C    0  0  0  0  0  0  0  0  0  0  0  0
    7.4043   12.0953   25.4486 C    0  0  0  0  0  0  0  0  0  0  0  0
    7.8581   13.4874   25.0333 C    0  0  0  0  0  0  0  0  0  0  0  0
    8.2552   13.6998   23.5986 C    0  0  0  0  0  0  0  0  0  0  0  0
    7.6108   13.2566   22.6483 O    0  0  0  0  0  0  0  0  0  0  0  0
    9.3580   14.4896   23.4989 N    0  0  0  0  0  0  0  0  0  0  0  0
    9.4742   15.4602   22.3743 C    0  0  0  0  0  0  0  0  0  0  0  0
   10.3985   14.7894   21.3381 C    0  0  0  0  0  0  0  0  0  0  0  0
   10.5036   15.5020   20.0155 C    0  0  0  0  0  0  0  0  0  0  0  0
   10.9752   14.7610   19.0180 N    0  0  0  0  0  0  0  0  0  0  0  0
   10.2627   16.6667   19.8120 O    0  0  0  0  0  0  0  0  0  0  0  0
   11.8141   14.6425   21.9198 C    0  0  0  0  0  0  0  0  0  0  0  0
   11.6792   13.7309   23.1279 C    0  0  0  0  0  0  0  0  0  0  0  0
   11.9794   14.3129   24.4638 C    0  0  0  0  0  0  0  0  0  0  0  0
   10.6114   13.8829   24.1374 C    0  0  0  0  0  0  0  0  0  0  0  0
    8.7063    8.8555   22.5871 H    0  0  0  0  0  0  0  0  0  0  0  0
    9.1871    8.0878   24.0929 H    0  0  0  0  0  0  0  0  0  0  0  0
   10.4118    8.6467   22.9564 H    0  0  0  0  0  0  0  0  0  0  0  0
    5.5389    8.8532   26.1698 H    0  0  0  0  0  0  0  0  0  0  0  0
    7.7484   13.2743   28.2196 H    0  0  0  0  0  0  0  0  0  0  0  0
    6.4107   14.0277   29.0557 H    0  0  0  0  0  0  0  0  0  0  0  0
    7.1271   14.8214   27.6673 H    0  0  0  0  0  0  0  0  0  0  0  0
    4.5148   14.7878   27.1450 H    0  0  0  0  0  0  0  0  0  0  0  0
    3.9407   13.3590   27.9818 H    0  0  0  0  0  0  0  0  0  0  0  0
    3.9755   13.4059   26.2136 H    0  0  0  0  0  0  0  0  0  0  0  0
    8.6081   13.8218   25.7537 H    0  0  0  0  0  0  0  0  0  0  0  0
    7.0546   14.2245   25.1178 H    0  0  0  0  0  0  0  0  0  0  0  0
    9.8715   16.3959   22.7611 H    0  0  0  0  0  0  0  0  0  0  0  0
    8.5114   15.7049   21.9320 H    0  0  0  0  0  0  0  0  0  0  0  0
    9.9823   13.7829   21.1245 H    0  0  0  0  0  0  0  0  0  0  0  0
   11.2418   13.8002   19.2491 H    0  0  0  0  0  0  0  0  0  0  0  0
   10.8502   15.0753   18.0697 H    0  0  0  0  0  0  0  0  0  0  0  0
   12.2248   15.6242   22.1619 H    0  0  0  0  0  0  0  0  0  0  0  0
   12.4962   14.1843   21.1918 H    0  0  0  0  0  0  0  0  0  0  0  0
   11.8935   12.6862   22.8871 H    0  0  0  0  0  0  0  0  0  0  0  0
   12.2038   15.3641   24.5777 H    0  0  0  0  0  0  0  0  0  0  0  0
   12.5674   13.6529   25.1051 H    0  0  0  0  0  0  0  0  0  0  0  0
   10.2775   13.0451   24.7054 H    0  0  0  0  0  0  0  0  0  0  0  0
 12 13  1  0  0  0  0
 11 12  1  0  0  0  0
  7 11  2  0  0  0  0
  6  7  1  0  0  0  0
  5  6  2  0  0  0  0
  4  5  1  0  0  0  0
  3  4  2  0  0  0  0
  2  3  1  0  0  0  0
  1  2  1  0  0  0  0
 25  1  1  0  0  0  0
 26  1  1  0  0  0  0
 27  1  1  0  0  0  0
 28  5  1  0  0  0  0
  8  7  1  0  0  0  0
  9  8  1  0  0  0  0
 10  8  1  0  0  0  0
 29  9  1  0  0  0  0
 30  9  1  0  0  0  0
 31  9  1  0  0  0  0
 32 10  1  0  0  0  0
 33 10  1  0  0  0  0
 34 10  1  0  0  0  0
 35 12  1  0  0  0  0
 36 12  1  0  0  0  0
 14 13  2  0  0  0  0
 15 13  1  0  0  0  0
 16 15  1  0  0  0  0
 17 16  1  0  0  0  0
 37 16  1  0  0  0  0
 38 16  1  0  0  0  0
 18 17  1  0  0  0  0
 21 17  1  0  0  0  0
 39 17  1  0  0  0  0
 19 18  1  0  0  0  0
 20 18  2  0  0  0  0
 40 19  1  0  0  0  0
 41 19  1  0  0  0  0
 42 21  1  0  0  0  0
 43 21  1  0  0  0  0
 22 21  1  0  0  0  0
 23 22  1  0  0  0  0
 44 22  1  0  0  0  0
 45 23  1  0  0  0  0
 46 23  1  0  0  0  0
 24 23  1  0  0  0  0
 47 24  1  0  0  0  0
 11  3  1  0  0  0  0
 24 15  1  0  0  0  0
 24 22  1  0  0  0  0
M  END
>  <FittedScore>
-27.68

$$$$
