A71EV2A-x7580b_best-RMSD
  FITTED

 47 49     0  0  0  0  0  0  0999 V2000
    9.6143    8.6067   23.3234 C    0  0  0  0  0  0  0  0  0  0  0  0
    9.4983   10.3633   23.7599 S    0  0  0  0  0  0  0  0  0  0  0  0
    8.0975   10.5366   24.8659 C    0  0  0  0  0  0  0  0  0  0  0  0
    7.4341    9.4017   25.2395 N    0  0  0  0  0  0  0  0  0  0  0  0
    6.4103    9.5213   26.1164 C    0  0  0  0  0  0  0  0  0  0  0  0
    5.9724   10.6915   26.6074 N    0  0  0  0  0  0  0  0  0  0  0  0
    6.5752   11.8542   26.2304 C    0  0  0  0  0  0  0  0  0  0  0  0
    6.0198   13.0125   26.7343 N    0  0  0  0  0  0  0  0  0  0  0  0
    5.5365   14.0905   25.8399 C    0  0  0  0  0  0  0  0  0  0  0  0
    5.7195   13.1367   28.1778 C    0  0  0  0  0  0  0  0  0  0  0  0
    7.6916   11.8087   25.3532 C    0  0  0  0  0  0  0  0  0  0  0  0
    8.4736   13.0737   24.9762 C    0  0  0  0  0  0  0  0  0  0  0  0
    8.3712   13.4506   23.4847 C    0  0  0  0  0  0  0  0  0  0  0  0
    7.3855   13.1111   22.8470 O    0  0  0  0  0  0  0  0  0  0  0  0
    9.3439   14.2526   22.9179 N    0  0  0  0  0  0  0  0  0  0  0  0
    9.1600   14.9529   21.6225 C    0  0  0  0  0  0  0  0  0  0  0  0
   10.5293   15.2933   20.9584 C    0  0  0  0  0  0  0  0  0  0  0  0
   10.3507   15.8521   19.5648 C    0  0  0  0  0  0  0  0  0  0  0  0
   11.2106   15.3708   18.6441 N    0  0  0  0  0  0  0  0  0  0  0  0
    9.4863   16.6388   19.2649 O    0  0  0  0  0  0  0  0  0  0  0  0
   11.3605   16.2799   21.8362 C    0  0  0  0  0  0  0  0  0  0  0  0
   11.6023   15.5529   23.1645 C    0  0  0  0  0  0  0  0  0  0  0  0
   10.8265   15.8335   24.4244 C    0  0  0  0  0  0  0  0  0  0  0  0
   10.6046   14.5536   23.6869 C    0  0  0  0  0  0  0  0  0  0  0  0
   10.3346    8.4983   22.5094 H    0  0  0  0  0  0  0  0  0  0  0  0
    8.6424    8.2409   22.9852 H    0  0  0  0  0  0  0  0  0  0  0  0
    9.9552    8.0201   24.1794 H    0  0  0  0  0  0  0  0  0  0  0  0
    5.9039    8.6119   26.4338 H    0  0  0  0  0  0  0  0  0  0  0  0
    6.0170   15.0475   26.0618 H    0  0  0  0  0  0  0  0  0  0  0  0
    4.4662   14.2399   25.9276 H    0  0  0  0  0  0  0  0  0  0  0  0
    5.7274   13.8586   24.7859 H    0  0  0  0  0  0  0  0  0  0  0  0
    6.1258   14.0661   28.5994 H    0  0  0  0  0  0  0  0  0  0  0  0
    6.1456   12.3172   28.7557 H    0  0  0  0  0  0  0  0  0  0  0  0
    4.6481   13.1162   28.3650 H    0  0  0  0  0  0  0  0  0  0  0  0
    9.4784   12.8785   25.3308 H    0  0  0  0  0  0  0  0  0  0  0  0
    8.1793   13.9480   25.5505 H    0  0  0  0  0  0  0  0  0  0  0  0
    8.6130   15.8834   21.8168 H    0  0  0  0  0  0  0  0  0  0  0  0
    8.5472   14.3644   20.9354 H    0  0  0  0  0  0  0  0  0  0  0  0
   11.0786   14.3459   20.8872 H    0  0  0  0  0  0  0  0  0  0  0  0
   11.0402   15.5837   17.6735 H    0  0  0  0  0  0  0  0  0  0  0  0
   11.9070   14.6761   18.8961 H    0  0  0  0  0  0  0  0  0  0  0  0
   10.8236   17.2238   21.9667 H    0  0  0  0  0  0  0  0  0  0  0  0
   12.3043   16.5219   21.3393 H    0  0  0  0  0  0  0  0  0  0  0  0
   12.6538   15.3052   23.2966 H    0  0  0  0  0  0  0  0  0  0  0  0
   10.0608   16.6046   24.3769 H    0  0  0  0  0  0  0  0  0  0  0  0
   11.3650   15.7977   25.3647 H    0  0  0  0  0  0  0  0  0  0  0  0
   11.0140   13.5616   23.8572 H    0  0  0  0  0  0  0  0  0  0  0  0
 12 13  1  0  0  0  0
 11 12  1  0  0  0  0
  7 11  2  0  0  0  0
  6  7  1  0  0  0  0
  5  6  2  0  0  0  0
  4  5  1  0  0  0  0
  3  4  2  0  0  0  0
  2  3  1  0  0  0  0
  1  2  1  0  0  0  0
 25  1  1  0  0  0  0
 26  1  1  0  0  0  0
 27  1  1  0  0  0  0
 28  5  1  0  0  0  0
  8  7  1  0  0  0  0
  9  8  1  0  0  0  0
 10  8  1  0  0  0  0
 29  9  1  0  0  0  0
 30  9  1  0  0  0  0
 31  9  1  0  0  0  0
 32 10  1  0  0  0  0
 33 10  1  0  0  0  0
 34 10  1  0  0  0  0
 35 12  1  0  0  0  0
 36 12  1  0  0  0  0
 14 13  2  0  0  0  0
 15 13  1  0  0  0  0
 16 15  1  0  0  0  0
 17 16  1  0  0  0  0
 37 16  1  0  0  0  0
 38 16  1  0  0  0  0
 18 17  1  0  0  0  0
 21 17  1  0  0  0  0
 39 17  1  0  0  0  0
 19 18  1  0  0  0  0
 20 18  2  0  0  0  0
 40 19  1  0  0  0  0
 41 19  1  0  0  0  0
 42 21  1  0  0  0  0
 43 21  1  0  0  0  0
 22 21  1  0  0  0  0
 23 22  1  0  0  0  0
 44 22  1  0  0  0  0
 45 23  1  0  0  0  0
 46 23  1  0  0  0  0
 24 23  1  0  0  0  0
 47 24  1  0  0  0  0
 11  3  1  0  0  0  0
 24 15  1  0  0  0  0
 24 22  1  0  0  0  0
M  END
>  <FittedScore>
-34.07

$$$$
