A71EV2A-x5398a_best-RMSD
  FITTED

 47 48     0  0  0  0  0  0  0999 V2000
    9.8032   16.0983   27.1816 C    0  0  0  0  0  0  0  0  0  0  0  0
    9.9806   15.3177   25.9829 O    0  0  0  0  0  0  0  0  0  0  0  0
    9.8117   15.9471   24.6816 C    0  0  0  0  0  0  0  0  0  0  0  0
   10.0658   14.9461   23.4877 C    0  0  0  0  0  0  0  0  0  0  0  0
   11.1569   13.8599   23.8427 C    0  0  0  0  0  0  0  0  0  0  0  0
   10.6460   15.8020   22.2948 C    0  0  0  0  0  0  0  0  0  0  0  0
   10.1655   15.0490   21.0652 C    0  0  0  0  0  0  0  0  0  0  0  0
   10.2788   15.7211   19.7034 C    0  0  0  0  0  0  0  0  0  0  0  0
   10.8024   14.9206   18.7610 N    0  0  0  0  0  0  0  0  0  0  0  0
    9.7187   16.7471   19.3685 O    0  0  0  0  0  0  0  0  0  0  0  0
    8.7541   14.6424   21.4731 C    0  0  0  0  0  0  0  0  0  0  0  0
    8.7957   14.3233   22.9212 N    0  0  0  0  0  0  0  0  0  0  0  0
    7.7757   13.5942   23.5071 C    0  0  0  0  0  0  0  0  0  0  0  0
    6.8285   13.2054   22.8313 O    0  0  0  0  0  0  0  0  0  0  0  0
    7.8093   13.2150   24.9934 C    0  0  0  0  0  0  0  0  0  0  0  0
    7.0973   11.8880   25.2991 C    0  0  0  0  0  0  0  0  0  0  0  0
    5.8831   11.9445   26.0040 C    0  0  0  0  0  0  0  0  0  0  0  0
    5.1892   10.7701   26.3150 C    0  0  0  0  0  0  0  0  0  0  0  0
    3.5463   10.8686   27.2789 BR   0  0  0  0  0  0  0  0  0  0  0  0
    5.7023    9.5334   25.9244 C    0  0  0  0  0  0  0  0  0  0  0  0
    6.9060    9.4638   25.2138 C    0  0  0  0  0  0  0  0  0  0  0  0
    7.6244   10.6335   24.8866 C    0  0  0  0  0  0  0  0  0  0  0  0
    9.1725   10.5489   23.9683 S    0  0  0  0  0  0  0  0  0  0  0  0
    9.3782    8.8601   23.3165 C    0  0  0  0  0  0  0  0  0  0  0  0
   10.4500   16.9778   27.1845 H    0  0  0  0  0  0  0  0  0  0  0  0
   10.0612   15.4751   28.0417 H    0  0  0  0  0  0  0  0  0  0  0  0
    8.7582   16.4100   27.2748 H    0  0  0  0  0  0  0  0  0  0  0  0
   10.5217   16.7819   24.6520 H    0  0  0  0  0  0  0  0  0  0  0  0
    8.8107   16.3773   24.6127 H    0  0  0  0  0  0  0  0  0  0  0  0
   12.0933   14.3333   24.1539 H    0  0  0  0  0  0  0  0  0  0  0  0
   11.3824   13.2034   23.0038 H    0  0  0  0  0  0  0  0  0  0  0  0
   10.8657   13.2021   24.6540 H    0  0  0  0  0  0  0  0  0  0  0  0
   11.7347   15.8936   22.3017 H    0  0  0  0  0  0  0  0  0  0  0  0
   10.2339   16.8189   22.2668 H    0  0  0  0  0  0  0  0  0  0  0  0
   10.7536   14.1272   21.0175 H    0  0  0  0  0  0  0  0  0  0  0  0
   10.8308   15.2738   17.8158 H    0  0  0  0  0  0  0  0  0  0  0  0
   10.9734   13.9262   18.9467 H    0  0  0  0  0  0  0  0  0  0  0  0
    8.4461   13.7756   20.8790 H    0  0  0  0  0  0  0  0  0  0  0  0
    8.0315   15.4476   21.3017 H    0  0  0  0  0  0  0  0  0  0  0  0
    7.3654   14.0368   25.5593 H    0  0  0  0  0  0  0  0  0  0  0  0
    8.8056   13.0952   25.3947 H    0  0  0  0  0  0  0  0  0  0  0  0
    5.4786   12.9075   26.3119 H    0  0  0  0  0  0  0  0  0  0  0  0
    5.1816    8.6077   26.1615 H    0  0  0  0  0  0  0  0  0  0  0  0
    7.2606    8.4806   24.9280 H    0  0  0  0  0  0  0  0  0  0  0  0
   10.2431    8.8444   22.6477 H    0  0  0  0  0  0  0  0  0  0  0  0
    8.5128    8.5508   22.7249 H    0  0  0  0  0  0  0  0  0  0  0  0
    9.5580    8.1579   24.1316 H    0  0  0  0  0  0  0  0  0  0  0  0
 12 13  1  0  0  0  0
 11 12  1  0  0  0  0
  7 11  1  0  0  0  0
  6  7  1  0  0  0  0
  4  6  1  0  0  0  0
  3  4  1  0  0  0  0
  2  3  1  0  0  0  0
  1  2  1  0  0  0  0
 25  1  1  0  0  0  0
 26  1  1  0  0  0  0
 27  1  1  0  0  0  0
 28  3  1  0  0  0  0
 29  3  1  0  0  0  0
  5  4  1  0  0  0  0
 30  5  1  0  0  0  0
 31  5  1  0  0  0  0
 32  5  1  0  0  0  0
 33  6  1  0  0  0  0
 34  6  1  0  0  0  0
  8  7  1  0  0  0  0
 35  7  1  0  0  0  0
  9  8  1  0  0  0  0
 10  8  2  0  0  0  0
 36  9  1  0  0  0  0
 37  9  1  0  0  0  0
 38 11  1  0  0  0  0
 39 11  1  0  0  0  0
 14 13  2  0  0  0  0
 15 13  1  0  0  0  0
 16 15  1  0  0  0  0
 40 15  1  0  0  0  0
 41 15  1  0  0  0  0
 17 16  2  0  0  0  0
 18 17  1  0  0  0  0
 42 17  1  0  0  0  0
 19 18  1  0  0  0  0
 20 18  2  0  0  0  0
 21 20  1  0  0  0  0
 43 20  1  0  0  0  0
 22 21  2  0  0  0  0
 44 21  1  0  0  0  0
 23 22  1  0  0  0  0
 24 23  1  0  0  0  0
 45 24  1  0  0  0  0
 46 24  1  0  0  0  0
 47 24  1  0  0  0  0
 12  4  1  0  0  0  0
 22 16  1  0  0  0  0
M  END
>  <FittedScore>
-34.62

$$$$
