A71EV2A-x5106a_best-RMSD
  FITTED

 40 42     0  0  0  0  0  0  0999 V2000
   10.2608   15.8160   24.6661 O    0  0  0  0  0  0  0  0  0  0  0  0
    9.9711   15.5860   23.5079 C    0  0  0  0  0  0  0  0  0  0  0  0
   10.8442   15.9358   22.3252 C    0  0  0  0  0  0  0  0  0  0  0  0
   10.2950   15.0542   21.1816 C    0  0  0  0  0  0  0  0  0  0  0  0
   10.3623   15.6438   19.7795 C    0  0  0  0  0  0  0  0  0  0  0  0
    9.9649   16.7550   19.4902 O    0  0  0  0  0  0  0  0  0  0  0  0
   10.6337   14.7543   18.8063 N    0  0  0  0  0  0  0  0  0  0  0  0
    8.8558   14.7185   21.6039 C    0  0  0  0  0  0  0  0  0  0  0  0
    8.8833   14.9014   23.0643 N    0  0  0  0  0  0  0  0  0  0  0  0
    7.8478   14.1971   23.8781 C    0  0  0  0  0  0  0  0  0  0  0  0
    6.4473   14.4404   23.2698 C    0  0  0  0  0  0  0  0  0  0  0  0
    5.6436   13.4303   22.5251 N    0  0  0  0  0  0  0  0  0  0  0  0
    4.4714   14.2249   22.0849 C    0  0  0  0  0  0  0  0  0  0  0  0
    4.5841   15.5370   22.5147 C    0  0  0  0  0  0  0  0  0  0  0  0
    5.7438   15.6158   23.2163 N    0  0  0  0  0  0  0  0  0  0  0  0
    6.1976   16.8847   23.8052 C    0  0  0  0  0  0  0  0  0  0  0  0
    8.1675   12.7113   24.1807 C    0  0  0  0  0  0  0  0  0  0  0  0
    7.3372   12.0322   25.0995 C    0  0  0  0  0  0  0  0  0  0  0  0
    7.5440   10.6766   25.3940 C    0  0  0  0  0  0  0  0  0  0  0  0
    8.6078    9.9816   24.7992 C    0  0  0  0  0  0  0  0  0  0  0  0
    9.4721   10.6503   23.9270 C    0  0  0  0  0  0  0  0  0  0  0  0
    9.2582   12.0017   23.6205 C    0  0  0  0  0  0  0  0  0  0  0  0
   10.7505   17.0037   22.1169 H    0  0  0  0  0  0  0  0  0  0  0  0
   11.8944   15.7061   22.5300 H    0  0  0  0  0  0  0  0  0  0  0  0
   10.8695   14.1211   21.2060 H    0  0  0  0  0  0  0  0  0  0  0  0
   10.6130   15.0599   17.8428 H    0  0  0  0  0  0  0  0  0  0  0  0
   10.7607   13.7657   19.0135 H    0  0  0  0  0  0  0  0  0  0  0  0
    8.1279   15.4057   21.1629 H    0  0  0  0  0  0  0  0  0  0  0  0
    8.5901   13.7021   21.3051 H    0  0  0  0  0  0  0  0  0  0  0  0
    7.8412   14.6699   24.8637 H    0  0  0  0  0  0  0  0  0  0  0  0
    3.6490   13.7963   21.5157 H    0  0  0  0  0  0  0  0  0  0  0  0
    3.8797   16.3470   22.3356 H    0  0  0  0  0  0  0  0  0  0  0  0
    5.3624   17.4946   24.1596 H    0  0  0  0  0  0  0  0  0  0  0  0
    6.7633   17.4769   23.0765 H    0  0  0  0  0  0  0  0  0  0  0  0
    6.8448   16.7568   24.6756 H    0  0  0  0  0  0  0  0  0  0  0  0
    6.5146   12.5571   25.5778 H    0  0  0  0  0  0  0  0  0  0  0  0
    6.8879   10.1693   26.0920 H    0  0  0  0  0  0  0  0  0  0  0  0
    8.7634    8.9268   25.0179 H    0  0  0  0  0  0  0  0  0  0  0  0
   10.3217   10.1288   23.4913 H    0  0  0  0  0  0  0  0  0  0  0  0
    9.9550   12.4673   22.9339 H    0  0  0  0  0  0  0  0  0  0  0  0
  8  9  1  0  0  0  0
  4  8  1  0  0  0  0
  5  4  1  0  0  0  0
  3  4  1  0  0  0  0
  2  3  1  0  0  0  0
  1  2  2  0  0  0  0
 23  3  1  0  0  0  0
 24  3  1  0  0  0  0
 25  4  1  0  0  0  0
  6  5  2  0  0  0  0
  7  5  1  0  0  0  0
 26  7  1  0  0  0  0
 27  7  1  0  0  0  0
 28  8  1  0  0  0  0
 29  8  1  0  0  0  0
 10  9  1  0  0  0  0
 30 10  1  0  0  0  0
 11 10  1  0  0  0  0
 12 11  2  0  0  0  0
 13 12  1  0  0  0  0
 31 13  1  0  0  0  0
 14 13  2  0  0  0  0
 32 14  1  0  0  0  0
 15 14  1  0  0  0  0
 16 15  1  0  0  0  0
 33 16  1  0  0  0  0
 34 16  1  0  0  0  0
 35 16  1  0  0  0  0
 17 10  1  0  0  0  0
 22 17  2  0  0  0  0
 18 17  1  0  0  0  0
 36 18  1  0  0  0  0
 19 18  2  0  0  0  0
 37 19  1  0  0  0  0
 20 19  1  0  0  0  0
 38 20  1  0  0  0  0
 21 20  2  0  0  0  0
 39 21  1  0  0  0  0
 40 22  1  0  0  0  0
  9  2  1  0  0  0  0
 15 11  1  0  0  0  0
 22 21  1  0  0  0  0
M  END
>  <FittedScore>
-32.14

$$$$
