A71EV2A-x4721a_best-RMSD
  FITTED

 34 35     0  0  0  0  0  0  0999 V2000
    5.4173   13.5005   21.3283 O    0  0  0  0  0  0  0  0  0  0  0  0
    5.4160   14.1596   22.3465 C    0  0  0  0  0  0  0  0  0  0  0  0
    4.2486   14.6400   22.8253 N    0  0  0  0  0  0  0  0  0  0  0  0
    4.0128   15.0556   24.2037 C    0  0  0  0  0  0  0  0  0  0  0  0
    5.2962   15.5895   24.8576 C    0  0  0  0  0  0  0  0  0  0  0  0
    6.6423   14.1918   23.2484 C    0  0  0  0  0  0  0  0  0  0  0  0
    6.4982   14.7293   24.6498 N    0  0  0  0  0  0  0  0  0  0  0  0
    7.4448   14.5560   25.6369 C    0  0  0  0  0  0  0  0  0  0  0  0
    7.4736   15.2625   26.6303 O    0  0  0  0  0  0  0  0  0  0  0  0
    8.3683   13.3347   25.5716 C    0  0  0  0  0  0  0  0  0  0  0  0
    7.6146   11.9928   25.7318 C    0  0  0  0  0  0  0  0  0  0  0  0
    7.9029   10.8311   24.9565 C    0  0  0  0  0  0  0  0  0  0  0  0
    9.2515   10.8038   23.7650 S    0  0  0  0  0  0  0  0  0  0  0  0
    9.6055    9.0675   23.3170 C    0  0  0  0  0  0  0  0  0  0  0  0
    6.5914   11.9254   26.7083 C    0  0  0  0  0  0  0  0  0  0  0  0
    5.8343   10.7698   26.8904 C    0  0  0  0  0  0  0  0  0  0  0  0
    6.0894    9.6504   26.1012 C    0  0  0  0  0  0  0  0  0  0  0  0
    7.1077    9.6817   25.1433 C    0  0  0  0  0  0  0  0  0  0  0  0
    3.5029   14.8316   22.1733 H    0  0  0  0  0  0  0  0  0  0  0  0
    3.2316   15.8231   24.2185 H    0  0  0  0  0  0  0  0  0  0  0  0
    3.6372   14.1913   24.7566 H    0  0  0  0  0  0  0  0  0  0  0  0
    5.5158   16.5928   24.4767 H    0  0  0  0  0  0  0  0  0  0  0  0
    5.0696   15.7062   25.9217 H    0  0  0  0  0  0  0  0  0  0  0  0
    7.4101   14.7871   22.7466 H    0  0  0  0  0  0  0  0  0  0  0  0
    7.0064   13.1652   23.2584 H    0  0  0  0  0  0  0  0  0  0  0  0
    8.9579   13.4054   24.6587 H    0  0  0  0  0  0  0  0  0  0  0  0
    9.1069   13.3918   26.3747 H    0  0  0  0  0  0  0  0  0  0  0  0
    8.7731    8.6275   22.7652 H    0  0  0  0  0  0  0  0  0  0  0  0
    9.8231    8.4707   24.2073 H    0  0  0  0  0  0  0  0  0  0  0  0
   10.4794    9.0479   22.6648 H    0  0  0  0  0  0  0  0  0  0  0  0
    6.3658   12.7745   27.3474 H    0  0  0  0  0  0  0  0  0  0  0  0
    5.0443   10.7447   27.6362 H    0  0  0  0  0  0  0  0  0  0  0  0
    5.4960    8.7515   26.2325 H    0  0  0  0  0  0  0  0  0  0  0  0
    7.2518    8.7807   24.5594 H    0  0  0  0  0  0  0  0  0  0  0  0
 10 11  1  0  0  0  0
  8 10  1  0  0  0  0
  7  8  1  0  0  0  0
  5  7  1  0  0  0  0
  4  5  1  0  0  0  0
  3  4  1  0  0  0  0
  2  3  1  0  0  0  0
  1  2  2  0  0  0  0
 19  3  1  0  0  0  0
 20  4  1  0  0  0  0
 21  4  1  0  0  0  0
 22  5  1  0  0  0  0
 23  5  1  0  0  0  0
  6  2  1  0  0  0  0
 24  6  1  0  0  0  0
 25  6  1  0  0  0  0
  9  8  2  0  0  0  0
 26 10  1  0  0  0  0
 27 10  1  0  0  0  0
 12 11  1  0  0  0  0
 18 12  2  0  0  0  0
 13 12  1  0  0  0  0
 14 13  1  0  0  0  0
 28 14  1  0  0  0  0
 29 14  1  0  0  0  0
 30 14  1  0  0  0  0
 15 11  2  0  0  0  0
 31 15  1  0  0  0  0
 16 15  1  0  0  0  0
 32 16  1  0  0  0  0
 17 16  2  0  0  0  0
 33 17  1  0  0  0  0
 34 18  1  0  0  0  0
  7  6  1  0  0  0  0
 18 17  1  0  0  0  0
M  END
>  <FittedScore>
-26.40

$$$$
