A71EV2A-x4721a_lowest-energy
  FITTED

 34 35     0  0  0  0  0  0  0999 V2000
    9.3428   16.9967   20.7887 O    0  0  0  0  0  0  0  0  0  0  0  0
    9.8208   15.9071   21.0334 C    0  0  0  0  0  0  0  0  0  0  0  0
   11.1208   15.7914   21.3982 N    0  0  0  0  0  0  0  0  0  0  0  0
   11.6283   14.6395   22.1491 C    0  0  0  0  0  0  0  0  0  0  0  0
   10.5696   14.1264   23.1622 C    0  0  0  0  0  0  0  0  0  0  0  0
    8.9309   14.6998   21.3275 C    0  0  0  0  0  0  0  0  0  0  0  0
    9.1327   14.1070   22.6897 N    0  0  0  0  0  0  0  0  0  0  0  0
    8.0794   13.5557   23.3925 C    0  0  0  0  0  0  0  0  0  0  0  0
    7.0052   13.3302   22.8533 O    0  0  0  0  0  0  0  0  0  0  0  0
    8.2352   13.3079   24.9010 C    0  0  0  0  0  0  0  0  0  0  0  0
    7.5237   12.0398   25.3798 C    0  0  0  0  0  0  0  0  0  0  0  0
    7.9027   10.7524   24.9120 C    0  0  0  0  0  0  0  0  0  0  0  0
    9.3451   10.5540   23.8547 S    0  0  0  0  0  0  0  0  0  0  0  0
    9.4672    8.8196   23.3249 C    0  0  0  0  0  0  0  0  0  0  0  0
    6.4744   12.1702   26.3123 C    0  0  0  0  0  0  0  0  0  0  0  0
    5.7709   11.0460   26.7464 C    0  0  0  0  0  0  0  0  0  0  0  0
    6.0895    9.7879   26.2343 C    0  0  0  0  0  0  0  0  0  0  0  0
    7.1318    9.6462   25.3094 C    0  0  0  0  0  0  0  0  0  0  0  0
   11.7358   16.5851   21.2854 H    0  0  0  0  0  0  0  0  0  0  0  0
   11.9006   13.8391   21.4525 H    0  0  0  0  0  0  0  0  0  0  0  0
   12.5428   14.9374   22.6687 H    0  0  0  0  0  0  0  0  0  0  0  0
   10.8772   13.1278   23.4800 H    0  0  0  0  0  0  0  0  0  0  0  0
   10.6322   14.7639   24.0456 H    0  0  0  0  0  0  0  0  0  0  0  0
    9.1392   13.9190   20.5885 H    0  0  0  0  0  0  0  0  0  0  0  0
    7.8918   15.0009   21.1692 H    0  0  0  0  0  0  0  0  0  0  0  0
    9.2706   13.2308   25.2342 H    0  0  0  0  0  0  0  0  0  0  0  0
    7.8464   14.1964   25.4072 H    0  0  0  0  0  0  0  0  0  0  0  0
    8.5676    8.5090   22.7878 H    0  0  0  0  0  0  0  0  0  0  0  0
    9.6345    8.1660   24.1807 H    0  0  0  0  0  0  0  0  0  0  0  0
   10.3167    8.7369   22.6470 H    0  0  0  0  0  0  0  0  0  0  0  0
    6.1888   13.1475   26.7013 H    0  0  0  0  0  0  0  0  0  0  0  0
    4.9713   11.1436   27.4787 H    0  0  0  0  0  0  0  0  0  0  0  0
    5.5238    8.9141   26.5402 H    0  0  0  0  0  0  0  0  0  0  0  0
    7.3318    8.6494   24.9320 H    0  0  0  0  0  0  0  0  0  0  0  0
 10 11  1  0  0  0  0
  8 10  1  0  0  0  0
  7  8  1  0  0  0  0
  5  7  1  0  0  0  0
  4  5  1  0  0  0  0
  3  4  1  0  0  0  0
  2  3  1  0  0  0  0
  1  2  2  0  0  0  0
 19  3  1  0  0  0  0
 20  4  1  0  0  0  0
 21  4  1  0  0  0  0
 22  5  1  0  0  0  0
 23  5  1  0  0  0  0
  6  2  1  0  0  0  0
 24  6  1  0  0  0  0
 25  6  1  0  0  0  0
  9  8  2  0  0  0  0
 26 10  1  0  0  0  0
 27 10  1  0  0  0  0
 12 11  1  0  0  0  0
 18 12  2  0  0  0  0
 13 12  1  0  0  0  0
 14 13  1  0  0  0  0
 28 14  1  0  0  0  0
 29 14  1  0  0  0  0
 30 14  1  0  0  0  0
 15 11  2  0  0  0  0
 31 15  1  0  0  0  0
 16 15  1  0  0  0  0
 32 16  1  0  0  0  0
 17 16  2  0  0  0  0
 33 17  1  0  0  0  0
 34 18  1  0  0  0  0
  7  6  1  0  0  0  0
 18 17  1  0  0  0  0
M  END
>  <FittedScore>
-24.82

$$$$
