A71EV2A-x4885a_best-RMSD
  FITTED

 43 44     0  0  0  0  0  0  0999 V2000
    9.8932   16.8577   19.3071 O    0  0  0  0  0  0  0  0  0  0  0  0
   10.2651   15.7570   19.6761 C    0  0  0  0  0  0  0  0  0  0  0  0
   10.7396   14.8609   18.7889 N    0  0  0  0  0  0  0  0  0  0  0  0
   10.1029   15.2358   21.1024 C    0  0  0  0  0  0  0  0  0  0  0  0
   11.0284   16.0228   22.0874 C    0  0  0  0  0  0  0  0  0  0  0  0
   10.7607   15.6605   23.5831 C    0  0  0  0  0  0  0  0  0  0  0  0
   11.3815   14.2927   23.9973 C    0  0  0  0  0  0  0  0  0  0  0  0
    9.2320   15.7192   23.8798 C    0  0  0  0  0  0  0  0  0  0  0  0
    8.6056   15.2454   21.5496 C    0  0  0  0  0  0  0  0  0  0  0  0
    8.4165   14.8316   22.9772 N    0  0  0  0  0  0  0  0  0  0  0  0
    7.6051   13.7826   23.3652 C    0  0  0  0  0  0  0  0  0  0  0  0
    6.9421   13.1624   22.5475 O    0  0  0  0  0  0  0  0  0  0  0  0
    7.5593   13.3829   24.8531 C    0  0  0  0  0  0  0  0  0  0  0  0
    6.9036   12.0239   25.1439 C    0  0  0  0  0  0  0  0  0  0  0  0
    7.5258   10.7927   24.8033 C    0  0  0  0  0  0  0  0  0  0  0  0
    9.0646   10.7751   23.8748 S    0  0  0  0  0  0  0  0  0  0  0  0
    9.4166    9.0502   23.3953 C    0  0  0  0  0  0  0  0  0  0  0  0
    5.6682   12.0132   25.8190 C    0  0  0  0  0  0  0  0  0  0  0  0
    5.0779   10.8057   26.2125 C    0  0  0  0  0  0  0  0  0  0  0  0
    5.7094    9.5953   25.9230 C    0  0  0  0  0  0  0  0  0  0  0  0
    6.9162    9.5888   25.2107 C    0  0  0  0  0  0  0  0  0  0  0  0
   10.7975   15.0958   17.8048 H    0  0  0  0  0  0  0  0  0  0  0  0
   10.8742   13.8915   19.0718 H    0  0  0  0  0  0  0  0  0  0  0  0
   10.4239   14.1885   21.1417 H    0  0  0  0  0  0  0  0  0  0  0  0
   12.0766   15.8377   21.8304 H    0  0  0  0  0  0  0  0  0  0  0  0
   10.8746   17.1004   21.9615 H    0  0  0  0  0  0  0  0  0  0  0  0
   11.2431   16.4263   24.1964 H    0  0  0  0  0  0  0  0  0  0  0  0
   10.9690   13.4626   23.4174 H    0  0  0  0  0  0  0  0  0  0  0  0
   11.1985   14.0815   25.0537 H    0  0  0  0  0  0  0  0  0  0  0  0
   12.4645   14.3073   23.8486 H    0  0  0  0  0  0  0  0  0  0  0  0
    9.0678   15.5431   24.9417 H    0  0  0  0  0  0  0  0  0  0  0  0
    8.8879   16.7511   23.7495 H    0  0  0  0  0  0  0  0  0  0  0  0
    8.0551   14.6076   20.8548 H    0  0  0  0  0  0  0  0  0  0  0  0
    8.1719   16.2412   21.4198 H    0  0  0  0  0  0  0  0  0  0  0  0
    8.5596   13.3448   25.2997 H    0  0  0  0  0  0  0  0  0  0  0  0
    7.0453   14.1834   25.3956 H    0  0  0  0  0  0  0  0  0  0  0  0
    9.6066    8.4282   24.2718 H    0  0  0  0  0  0  0  0  0  0  0  0
   10.3137    9.0633   22.7770 H    0  0  0  0  0  0  0  0  0  0  0  0
    8.5798    8.6357   22.8305 H    0  0  0  0  0  0  0  0  0  0  0  0
    5.1702   12.9475   26.0705 H    0  0  0  0  0  0  0  0  0  0  0  0
    4.1346   10.8111   26.7535 H    0  0  0  0  0  0  0  0  0  0  0  0
    5.2652    8.6557   26.2402 H    0  0  0  0  0  0  0  0  0  0  0  0
    7.3688    8.6270   25.0160 H    0  0  0  0  0  0  0  0  0  0  0  0
 10 11  1  0  0  0  0
  8 10  1  0  0  0  0
  6  8  1  0  0  0  0
  7  6  1  0  0  0  0
  5  6  1  0  0  0  0
  4  5  1  0  0  0  0
  2  4  1  0  0  0  0
  1  2  2  0  0  0  0
  3  2  1  0  0  0  0
 22  3  1  0  0  0  0
 23  3  1  0  0  0  0
 24  4  1  0  0  0  0
 25  5  1  0  0  0  0
 26  5  1  0  0  0  0
 27  6  1  0  0  0  0
 28  7  1  0  0  0  0
 29  7  1  0  0  0  0
 30  7  1  0  0  0  0
 31  8  1  0  0  0  0
 32  8  1  0  0  0  0
  9  4  1  0  0  0  0
 33  9  1  0  0  0  0
 34  9  1  0  0  0  0
 12 11  2  0  0  0  0
 13 11  1  0  0  0  0
 35 13  1  0  0  0  0
 36 13  1  0  0  0  0
 14 13  1  0  0  0  0
 15 14  1  0  0  0  0
 21 15  2  0  0  0  0
 16 15  1  0  0  0  0
 17 16  1  0  0  0  0
 37 17  1  0  0  0  0
 38 17  1  0  0  0  0
 39 17  1  0  0  0  0
 18 14  2  0  0  0  0
 40 18  1  0  0  0  0
 19 18  1  0  0  0  0
 41 19  1  0  0  0  0
 20 19  2  0  0  0  0
 42 20  1  0  0  0  0
 43 21  1  0  0  0  0
 10  9  1  0  0  0  0
 21 20  1  0  0  0  0
M  END
>  <FittedScore>
-37.78

$$$$
