A71EV2A-x5788a_best-RMSD
  FITTED

 47 49     0  0  0  0  0  0  0999 V2000
   10.2863    9.1354   24.4065 C    0  0  0  0  0  0  0  0  0  0  0  0
    9.2103   10.4277   23.7307 S    0  0  0  0  0  0  0  0  0  0  0  0
    7.8845   10.6314   24.9128 C    0  0  0  0  0  0  0  0  0  0  0  0
    7.1720    9.4869   25.2981 C    0  0  0  0  0  0  0  0  0  0  0  0
    6.0988    9.5792   26.1823 C    0  0  0  0  0  0  0  0  0  0  0  0
    5.7071   10.8213   26.6754 C    0  0  0  0  0  0  0  0  0  0  0  0
    6.3895   11.9933   26.3024 C    0  0  0  0  0  0  0  0  0  0  0  0
    5.9188   13.1756   26.8423 N    0  0  0  0  0  0  0  0  0  0  0  0
    5.8478   13.4661   28.1751 C    0  0  0  0  0  0  0  0  0  0  0  0
    5.2543   14.7006   28.3505 C    0  0  0  0  0  0  0  0  0  0  0  0
    4.9222   15.2889   27.0456 N    0  0  0  0  0  0  0  0  0  0  0  0
    5.4039   14.2302   26.1404 C    0  0  0  0  0  0  0  0  0  0  0  0
    7.5081   11.9094   25.4160 C    0  0  0  0  0  0  0  0  0  0  0  0
    8.3272   13.1607   25.0075 C    0  0  0  0  0  0  0  0  0  0  0  0
    8.0193   13.7377   23.6093 C    0  0  0  0  0  0  0  0  0  0  0  0
    7.2195   13.1677   22.8769 O    0  0  0  0  0  0  0  0  0  0  0  0
    8.7494   14.8262   23.1656 N    0  0  0  0  0  0  0  0  0  0  0  0
    9.6617   15.7002   23.9908 C    0  0  0  0  0  0  0  0  0  0  0  0
   11.1269   15.7441   23.4682 C    0  0  0  0  0  0  0  0  0  0  0  0
   11.1904   16.1398   21.9713 C    0  0  0  0  0  0  0  0  0  0  0  0
   10.2108   15.2717   21.1361 C    0  0  0  0  0  0  0  0  0  0  0  0
   10.2497   15.6993   19.6765 C    0  0  0  0  0  0  0  0  0  0  0  0
   10.7684   14.7961   18.8287 N    0  0  0  0  0  0  0  0  0  0  0  0
    9.7417   16.7184   19.2517 O    0  0  0  0  0  0  0  0  0  0  0  0
    8.7692   15.2852   21.7364 C    0  0  0  0  0  0  0  0  0  0  0  0
   11.1460    9.0269   23.7409 H    0  0  0  0  0  0  0  0  0  0  0  0
    9.7623    8.1828   24.4635 H    0  0  0  0  0  0  0  0  0  0  0  0
   10.6302    9.4377   25.3952 H    0  0  0  0  0  0  0  0  0  0  0  0
    7.4288    8.5139   24.8908 H    0  0  0  0  0  0  0  0  0  0  0  0
    5.5590    8.6839   26.4789 H    0  0  0  0  0  0  0  0  0  0  0  0
    4.8598   10.8612   27.3576 H    0  0  0  0  0  0  0  0  0  0  0  0
    6.2045   12.8218   28.9705 H    0  0  0  0  0  0  0  0  0  0  0  0
    5.0388   15.1979   29.2978 H    0  0  0  0  0  0  0  0  0  0  0  0
    5.3419   14.3082   25.0563 H    0  0  0  0  0  0  0  0  0  0  0  0
    9.3941   12.9272   25.0599 H    0  0  0  0  0  0  0  0  0  0  0  0
    8.2065   13.9334   25.7664 H    0  0  0  0  0  0  0  0  0  0  0  0
    9.7065   15.4199   25.0411 H    0  0  0  0  0  0  0  0  0  0  0  0
    9.2519   16.7150   23.9973 H    0  0  0  0  0  0  0  0  0  0  0  0
   11.5989   14.7663   23.6060 H    0  0  0  0  0  0  0  0  0  0  0  0
   11.7107   16.4595   24.0561 H    0  0  0  0  0  0  0  0  0  0  0  0
   12.2084   15.9941   21.6033 H    0  0  0  0  0  0  0  0  0  0  0  0
   10.9603   17.2053   21.8596 H    0  0  0  0  0  0  0  0  0  0  0  0
   10.5535   14.2329   21.2210 H    0  0  0  0  0  0  0  0  0  0  0  0
   10.9616   13.8530   19.1624 H    0  0  0  0  0  0  0  0  0  0  0  0
   10.7357   14.9802   17.8314 H    0  0  0  0  0  0  0  0  0  0  0  0
    8.1421   14.6632   21.0922 H    0  0  0  0  0  0  0  0  0  0  0  0
    8.3313   16.2889   21.6769 H    0  0  0  0  0  0  0  0  0  0  0  0
 14 15  1  0  0  0  0
 13 14  1  0  0  0  0
  7 13  2  0  0  0  0
  6  7  1  0  0  0  0
  5  6  2  0  0  0  0
  4  5  1  0  0  0  0
  3  4  2  0  0  0  0
  2  3  1  0  0  0  0
  1  2  1  0  0  0  0
 26  1  1  0  0  0  0
 27  1  1  0  0  0  0
 28  1  1  0  0  0  0
 29  4  1  0  0  0  0
 30  5  1  0  0  0  0
 31  6  1  0  0  0  0
  8  7  1  0  0  0  0
  9  8  1  0  0  0  0
 10  9  2  0  0  0  0
 32  9  1  0  0  0  0
 11 10  1  0  0  0  0
 33 10  1  0  0  0  0
 12 11  2  0  0  0  0
 34 12  1  0  0  0  0
 35 14  1  0  0  0  0
 36 14  1  0  0  0  0
 16 15  2  0  0  0  0
 17 15  1  0  0  0  0
 18 17  1  0  0  0  0
 19 18  1  0  0  0  0
 37 18  1  0  0  0  0
 38 18  1  0  0  0  0
 20 19  1  0  0  0  0
 39 19  1  0  0  0  0
 40 19  1  0  0  0  0
 21 20  1  0  0  0  0
 41 20  1  0  0  0  0
 42 20  1  0  0  0  0
 22 21  1  0  0  0  0
 25 21  1  0  0  0  0
 43 21  1  0  0  0  0
 23 22  1  0  0  0  0
 24 22  2  0  0  0  0
 44 23  1  0  0  0  0
 45 23  1  0  0  0  0
 46 25  1  0  0  0  0
 47 25  1  0  0  0  0
 12  8  1  0  0  0  0
 13  3  1  0  0  0  0
 25 17  1  0  0  0  0
M  END
>  <FittedScore>
-30.53

$$$$
