A71EV2A-x5788a_lowest-energy
  FITTED

 47 49     0  0  0  0  0  0  0999 V2000
   10.0932    8.9412   24.1611 C    0  0  0  0  0  0  0  0  0  0  0  0
    9.3135   10.5727   23.9264 S    0  0  0  0  0  0  0  0  0  0  0  0
    7.8673   10.6728   24.9896 C    0  0  0  0  0  0  0  0  0  0  0  0
    7.2220    9.4853   25.3809 C    0  0  0  0  0  0  0  0  0  0  0  0
    6.1047    9.5157   26.2140 C    0  0  0  0  0  0  0  0  0  0  0  0
    5.5887   10.7276   26.6525 C    0  0  0  0  0  0  0  0  0  0  0  0
    6.1769   11.9378   26.2463 C    0  0  0  0  0  0  0  0  0  0  0  0
    5.5508   13.0891   26.6724 N    0  0  0  0  0  0  0  0  0  0  0  0
    5.4198   13.4935   27.9695 C    0  0  0  0  0  0  0  0  0  0  0  0
    4.6122   14.6133   28.0148 C    0  0  0  0  0  0  0  0  0  0  0  0
    4.1904   14.9935   26.6558 N    0  0  0  0  0  0  0  0  0  0  0  0
    4.8667   13.9524   25.8643 C    0  0  0  0  0  0  0  0  0  0  0  0
    7.3404   11.9278   25.4166 C    0  0  0  0  0  0  0  0  0  0  0  0
    8.0490   13.2453   25.0133 C    0  0  0  0  0  0  0  0  0  0  0  0
    7.8617   13.6990   23.5522 C    0  0  0  0  0  0  0  0  0  0  0  0
    7.1028   13.0886   22.8104 O    0  0  0  0  0  0  0  0  0  0  0  0
    8.6132   14.7680   23.0936 N    0  0  0  0  0  0  0  0  0  0  0  0
    9.3848   15.7488   23.9390 C    0  0  0  0  0  0  0  0  0  0  0  0
   10.8749   15.9050   23.5214 C    0  0  0  0  0  0  0  0  0  0  0  0
   10.9994   16.2768   22.0216 C    0  0  0  0  0  0  0  0  0  0  0  0
   10.1769   15.2942   21.1399 C    0  0  0  0  0  0  0  0  0  0  0  0
   10.2481   15.7012   19.6702 C    0  0  0  0  0  0  0  0  0  0  0  0
   10.7730   14.7808   18.8378 N    0  0  0  0  0  0  0  0  0  0  0  0
    9.7322   16.7092   19.2212 O    0  0  0  0  0  0  0  0  0  0  0  0
    8.7017   15.1578   21.6480 C    0  0  0  0  0  0  0  0  0  0  0  0
   11.0562    8.9205   23.6499 H    0  0  0  0  0  0  0  0  0  0  0  0
    9.4626    8.1671   23.7224 H    0  0  0  0  0  0  0  0  0  0  0  0
   10.2491    8.7422   25.2222 H    0  0  0  0  0  0  0  0  0  0  0  0
    7.5669    8.5155   25.0408 H    0  0  0  0  0  0  0  0  0  0  0  0
    5.6307    8.5857   26.5180 H    0  0  0  0  0  0  0  0  0  0  0  0
    4.7090   10.7172   27.2982 H    0  0  0  0  0  0  0  0  0  0  0  0
    5.8695   12.9985   28.8281 H    0  0  0  0  0  0  0  0  0  0  0  0
    4.2991   15.1608   28.9046 H    0  0  0  0  0  0  0  0  0  0  0  0
    4.8052   13.8960   24.7787 H    0  0  0  0  0  0  0  0  0  0  0  0
    9.1147   13.1309   25.2272 H    0  0  0  0  0  0  0  0  0  0  0  0
    7.7403   14.0632   25.6670 H    0  0  0  0  0  0  0  0  0  0  0  0
    9.3749   15.5218   25.0029 H    0  0  0  0  0  0  0  0  0  0  0  0
    8.8944   16.7252   23.8635 H    0  0  0  0  0  0  0  0  0  0  0  0
   11.4190   14.9759   23.7240 H    0  0  0  0  0  0  0  0  0  0  0  0
   11.3451   16.6840   24.1250 H    0  0  0  0  0  0  0  0  0  0  0  0
   12.0531   16.2489   21.7274 H    0  0  0  0  0  0  0  0  0  0  0  0
   10.6488   17.3044   21.8685 H    0  0  0  0  0  0  0  0  0  0  0  0
   10.6345   14.3044   21.2640 H    0  0  0  0  0  0  0  0  0  0  0  0
   10.9694   13.8388   19.1754 H    0  0  0  0  0  0  0  0  0  0  0  0
   10.7977   14.9597   17.8390 H    0  0  0  0  0  0  0  0  0  0  0  0
    8.2027   14.4332   20.9967 H    0  0  0  0  0  0  0  0  0  0  0  0
    8.1683   16.1021   21.4977 H    0  0  0  0  0  0  0  0  0  0  0  0
 14 15  1  0  0  0  0
 13 14  1  0  0  0  0
  7 13  2  0  0  0  0
  6  7  1  0  0  0  0
  5  6  2  0  0  0  0
  4  5  1  0  0  0  0
  3  4  2  0  0  0  0
  2  3  1  0  0  0  0
  1  2  1  0  0  0  0
 26  1  1  0  0  0  0
 27  1  1  0  0  0  0
 28  1  1  0  0  0  0
 29  4  1  0  0  0  0
 30  5  1  0  0  0  0
 31  6  1  0  0  0  0
  8  7  1  0  0  0  0
  9  8  1  0  0  0  0
 10  9  2  0  0  0  0
 32  9  1  0  0  0  0
 11 10  1  0  0  0  0
 33 10  1  0  0  0  0
 12 11  2  0  0  0  0
 34 12  1  0  0  0  0
 35 14  1  0  0  0  0
 36 14  1  0  0  0  0
 16 15  2  0  0  0  0
 17 15  1  0  0  0  0
 18 17  1  0  0  0  0
 19 18  1  0  0  0  0
 37 18  1  0  0  0  0
 38 18  1  0  0  0  0
 20 19  1  0  0  0  0
 39 19  1  0  0  0  0
 40 19  1  0  0  0  0
 21 20  1  0  0  0  0
 41 20  1  0  0  0  0
 42 20  1  0  0  0  0
 22 21  1  0  0  0  0
 25 21  1  0  0  0  0
 43 21  1  0  0  0  0
 23 22  1  0  0  0  0
 24 22  2  0  0  0  0
 44 23  1  0  0  0  0
 45 23  1  0  0  0  0
 46 25  1  0  0  0  0
 47 25  1  0  0  0  0
 12  8  1  0  0  0  0
 13  3  1  0  0  0  0
 25 17  1  0  0  0  0
M  END
>  <FittedScore>
-30.46

$$$$
