A71EV2A-x4826a_best-RMSD
  FITTED

 38 39     0  0  0  0  0  0  0999 V2000
    9.8649   16.8340   19.3543 O    0  0  0  0  0  0  0  0  0  0  0  0
   10.2788   15.7407   19.7001 C    0  0  0  0  0  0  0  0  0  0  0  0
   10.6982   14.8415   18.7852 N    0  0  0  0  0  0  0  0  0  0  0  0
   10.1821   15.2274   21.1377 C    0  0  0  0  0  0  0  0  0  0  0  0
   11.1573   15.9850   22.0870 C    0  0  0  0  0  0  0  0  0  0  0  0
   11.0025   15.4886   23.5504 C    0  0  0  0  0  0  0  0  0  0  0  0
    9.5171   15.4986   24.0096 C    0  0  0  0  0  0  0  0  0  0  0  0
    8.7195   15.2928   21.6742 C    0  0  0  0  0  0  0  0  0  0  0  0
    8.5985   14.7566   23.0687 N    0  0  0  0  0  0  0  0  0  0  0  0
    7.7995   13.6753   23.3727 C    0  0  0  0  0  0  0  0  0  0  0  0
    7.1289   13.0898   22.5414 O    0  0  0  0  0  0  0  0  0  0  0  0
    7.7781   13.2628   24.6661 N    0  0  0  0  0  0  0  0  0  0  0  0
    7.2292   12.0403   25.1568 C    0  0  0  0  0  0  0  0  0  0  0  0
    7.6648   10.7557   24.7357 C    0  0  0  0  0  0  0  0  0  0  0  0
    9.0696   10.5867   23.6309 S    0  0  0  0  0  0  0  0  0  0  0  0
    9.3607    8.8090   23.3857 C    0  0  0  0  0  0  0  0  0  0  0  0
    6.1955   12.1441   26.0983 C    0  0  0  0  0  0  0  0  0  0  0  0
    5.5810   11.0485   26.6087 N    0  0  0  0  0  0  0  0  0  0  0  0
    5.9561    9.8168   26.1812 C    0  0  0  0  0  0  0  0  0  0  0  0
    6.9814    9.6364   25.2487 C    0  0  0  0  0  0  0  0  0  0  0  0
   10.7648   15.1046   17.8098 H    0  0  0  0  0  0  0  0  0  0  0  0
   10.8293   13.8690   19.0543 H    0  0  0  0  0  0  0  0  0  0  0  0
   10.4666   14.1699   21.1718 H    0  0  0  0  0  0  0  0  0  0  0  0
   12.1859   15.8285   21.7598 H    0  0  0  0  0  0  0  0  0  0  0  0
   10.9636   17.0602   22.0473 H    0  0  0  0  0  0  0  0  0  0  0  0
   11.4118   14.4758   23.6404 H    0  0  0  0  0  0  0  0  0  0  0  0
   11.5939   16.1268   24.2147 H    0  0  0  0  0  0  0  0  0  0  0  0
    9.5006   15.1067   25.0319 H    0  0  0  0  0  0  0  0  0  0  0  0
    9.1742   16.5365   24.0909 H    0  0  0  0  0  0  0  0  0  0  0  0
    8.0775   14.7632   20.9620 H    0  0  0  0  0  0  0  0  0  0  0  0
    8.3490   16.3214   21.6657 H    0  0  0  0  0  0  0  0  0  0  0  0
    8.0834   13.8919   25.4056 H    0  0  0  0  0  0  0  0  0  0  0  0
    9.5704    8.3306   24.3463 H    0  0  0  0  0  0  0  0  0  0  0  0
   10.2275    8.6733   22.7349 H    0  0  0  0  0  0  0  0  0  0  0  0
    8.4909    8.3467   22.9110 H    0  0  0  0  0  0  0  0  0  0  0  0
    5.8602   13.1348   26.4232 H    0  0  0  0  0  0  0  0  0  0  0  0
    5.4323    8.9446   26.5650 H    0  0  0  0  0  0  0  0  0  0  0  0
    7.2272    8.6196   24.9650 H    0  0  0  0  0  0  0  0  0  0  0  0
  9 10  1  0  0  0  0
  7  9  1  0  0  0  0
  6  7  1  0  0  0  0
  5  6  1  0  0  0  0
  4  5  1  0  0  0  0
  2  4  1  0  0  0  0
  1  2  2  0  0  0  0
  3  2  1  0  0  0  0
 21  3  1  0  0  0  0
 22  3  1  0  0  0  0
 23  4  1  0  0  0  0
 24  5  1  0  0  0  0
 25  5  1  0  0  0  0
 26  6  1  0  0  0  0
 27  6  1  0  0  0  0
 28  7  1  0  0  0  0
 29  7  1  0  0  0  0
  8  4  1  0  0  0  0
 30  8  1  0  0  0  0
 31  8  1  0  0  0  0
 11 10  2  0  0  0  0
 12 10  1  0  0  0  0
 32 12  1  0  0  0  0
 13 12  1  0  0  0  0
 14 13  1  0  0  0  0
 20 14  2  0  0  0  0
 15 14  1  0  0  0  0
 16 15  1  0  0  0  0
 33 16  1  0  0  0  0
 34 16  1  0  0  0  0
 35 16  1  0  0  0  0
 17 13  2  0  0  0  0
 36 17  1  0  0  0  0
 18 17  1  0  0  0  0
 19 18  2  0  0  0  0
 37 19  1  0  0  0  0
 38 20  1  0  0  0  0
  9  8  1  0  0  0  0
 20 19  1  0  0  0  0
M  END
>  <FittedScore>
-38.25

$$$$
