A71EV2A-x4826a_lowest-energy
  FITTED

 38 39     0  0  0  0  0  0  0999 V2000
    9.8569   16.8611   19.3460 O    0  0  0  0  0  0  0  0  0  0  0  0
   10.3022   15.7881   19.7028 C    0  0  0  0  0  0  0  0  0  0  0  0
   10.7073   14.8669   18.8051 N    0  0  0  0  0  0  0  0  0  0  0  0
   10.2004   15.3032   21.1412 C    0  0  0  0  0  0  0  0  0  0  0  0
   11.0443   16.1979   22.0958 C    0  0  0  0  0  0  0  0  0  0  0  0
   10.8596   15.7487   23.5684 C    0  0  0  0  0  0  0  0  0  0  0  0
    9.3574   15.6228   23.9491 C    0  0  0  0  0  0  0  0  0  0  0  0
    8.7089   15.2144   21.5978 C    0  0  0  0  0  0  0  0  0  0  0  0
    8.5586   14.7499   23.0167 N    0  0  0  0  0  0  0  0  0  0  0  0
    7.8033   13.6464   23.3558 C    0  0  0  0  0  0  0  0  0  0  0  0
    7.1054   13.0568   22.5522 O    0  0  0  0  0  0  0  0  0  0  0  0
    7.8419   13.2312   24.6513 N    0  0  0  0  0  0  0  0  0  0  0  0
    7.2995   12.0206   25.1921 C    0  0  0  0  0  0  0  0  0  0  0  0
    7.6809   10.7256   24.7541 C    0  0  0  0  0  0  0  0  0  0  0  0
    9.0570   10.5024   23.6237 S    0  0  0  0  0  0  0  0  0  0  0  0
    9.2857    8.7197   23.3638 C    0  0  0  0  0  0  0  0  0  0  0  0
    6.3336   12.1457   26.2041 C    0  0  0  0  0  0  0  0  0  0  0  0
    5.7091   11.0688   26.7451 N    0  0  0  0  0  0  0  0  0  0  0  0
    5.9998    9.8341   26.2711 C    0  0  0  0  0  0  0  0  0  0  0  0
    6.9691    9.6275   25.2816 C    0  0  0  0  0  0  0  0  0  0  0  0
   10.7596   15.1185   17.8258 H    0  0  0  0  0  0  0  0  0  0  0  0
   10.8429   13.8970   19.0903 H    0  0  0  0  0  0  0  0  0  0  0  0
   10.6140   14.2896   21.2165 H    0  0  0  0  0  0  0  0  0  0  0  0
   12.1022   16.1345   21.8243 H    0  0  0  0  0  0  0  0  0  0  0  0
   10.7555   17.2502   21.9984 H    0  0  0  0  0  0  0  0  0  0  0  0
   11.3634   14.7901   23.7242 H    0  0  0  0  0  0  0  0  0  0  0  0
   11.3425   16.4755   24.2282 H    0  0  0  0  0  0  0  0  0  0  0  0
    9.3203   15.2906   24.9874 H    0  0  0  0  0  0  0  0  0  0  0  0
    8.9050   16.6200   23.9573 H    0  0  0  0  0  0  0  0  0  0  0  0
    8.1969   14.5601   20.8879 H    0  0  0  0  0  0  0  0  0  0  0  0
    8.2144   16.1875   21.4957 H    0  0  0  0  0  0  0  0  0  0  0  0
    8.1711   13.8751   25.3663 H    0  0  0  0  0  0  0  0  0  0  0  0
    9.5688    8.2446   24.3036 H    0  0  0  0  0  0  0  0  0  0  0  0
   10.0854    8.5580   22.6371 H    0  0  0  0  0  0  0  0  0  0  0  0
    8.3691    8.2669   22.9729 H    0  0  0  0  0  0  0  0  0  0  0  0
    6.0604   13.1358   26.5631 H    0  0  0  0  0  0  0  0  0  0  0  0
    5.4824    8.9740   26.6909 H    0  0  0  0  0  0  0  0  0  0  0  0
    7.1674    8.6056   24.9800 H    0  0  0  0  0  0  0  0  0  0  0  0
  9 10  1  0  0  0  0
  7  9  1  0  0  0  0
  6  7  1  0  0  0  0
  5  6  1  0  0  0  0
  4  5  1  0  0  0  0
  2  4  1  0  0  0  0
  1  2  2  0  0  0  0
  3  2  1  0  0  0  0
 21  3  1  0  0  0  0
 22  3  1  0  0  0  0
 23  4  1  0  0  0  0
 24  5  1  0  0  0  0
 25  5  1  0  0  0  0
 26  6  1  0  0  0  0
 27  6  1  0  0  0  0
 28  7  1  0  0  0  0
 29  7  1  0  0  0  0
  8  4  1  0  0  0  0
 30  8  1  0  0  0  0
 31  8  1  0  0  0  0
 11 10  2  0  0  0  0
 12 10  1  0  0  0  0
 32 12  1  0  0  0  0
 13 12  1  0  0  0  0
 14 13  1  0  0  0  0
 20 14  2  0  0  0  0
 15 14  1  0  0  0  0
 16 15  1  0  0  0  0
 33 16  1  0  0  0  0
 34 16  1  0  0  0  0
 35 16  1  0  0  0  0
 17 13  2  0  0  0  0
 36 17  1  0  0  0  0
 18 17  1  0  0  0  0
 19 18  2  0  0  0  0
 37 19  1  0  0  0  0
 38 20  1  0  0  0  0
  9  8  1  0  0  0  0
 20 19  1  0  0  0  0
M  END
>  <FittedScore>
-38.63

$$$$
