A71EV2A-x7465b_lowest-energy
  FITTED

 44 47     0  0  0  0  0  0  0999 V2000
    9.1827    8.2214   23.2577 C    0  0  0  0  0  0  0  0  0  0  0  0
    9.6237    9.8868   23.7116 S    0  0  0  0  0  0  0  0  0  0  0  0
    8.3284   10.5314   24.7503 C    0  0  0  0  0  0  0  0  0  0  0  0
    7.5039    9.7288   25.5480 C    0  0  0  0  0  0  0  0  0  0  0  0
    6.6371   10.2952   26.4912 C    0  0  0  0  0  0  0  0  0  0  0  0
    6.4605   11.6932   26.5495 C    0  0  0  0  0  0  0  0  0  0  0  0
    5.6357   12.2347   27.4868 N    0  0  0  0  0  0  0  0  0  0  0  0
    5.3891   13.5764   27.4508 C    0  0  0  0  0  0  0  0  0  0  0  0
    5.9160   14.4098   26.4538 C    0  0  0  0  0  0  0  0  0  0  0  0
    6.8324   13.8810   25.5451 C    0  0  0  0  0  0  0  0  0  0  0  0
    7.1561   12.4982   25.6136 C    0  0  0  0  0  0  0  0  0  0  0  0
    8.1594   11.9246   24.8172 C    0  0  0  0  0  0  0  0  0  0  0  0
    9.0629   12.7279   24.1396 O    0  0  0  0  0  0  0  0  0  0  0  0
    8.7893   13.2776   22.9217 C    0  0  0  0  0  0  0  0  0  0  0  0
    7.7279   13.0368   22.3721 O    0  0  0  0  0  0  0  0  0  0  0  0
    9.7200   14.1280   22.3919 N    0  0  0  0  0  0  0  0  0  0  0  0
    9.4615   15.0966   21.3019 C    0  0  0  0  0  0  0  0  0  0  0  0
    9.9476   16.5378   21.6869 C    0  0  0  0  0  0  0  0  0  0  0  0
    9.8620   17.4565   20.4773 C    0  0  0  0  0  0  0  0  0  0  0  0
    9.1149   18.5851   20.5375 N    0  0  0  0  0  0  0  0  0  0  0  0
   10.2562   17.0654   19.4094 O    0  0  0  0  0  0  0  0  0  0  0  0
   11.4171   16.5208   22.2410 C    0  0  0  0  0  0  0  0  0  0  0  0
   11.6867   15.5585   23.4032 C    0  0  0  0  0  0  0  0  0  0  0  0
   10.9046   14.9190   24.5265 C    0  0  0  0  0  0  0  0  0  0  0  0
   10.9922   14.2667   23.1801 C    0  0  0  0  0  0  0  0  0  0  0  0
    9.9089    7.8286   22.5423 H    0  0  0  0  0  0  0  0  0  0  0  0
    8.1974    8.2391   22.7933 H    0  0  0  0  0  0  0  0  0  0  0  0
    9.1675    7.5725   24.1413 H    0  0  0  0  0  0  0  0  0  0  0  0
    7.6613    8.6496   25.5934 H    0  0  0  0  0  0  0  0  0  0  0  0
    6.1262    9.6502   27.2074 H    0  0  0  0  0  0  0  0  0  0  0  0
    4.7463   14.0125   28.2066 H    0  0  0  0  0  0  0  0  0  0  0  0
    5.6195   15.4547   26.3858 H    0  0  0  0  0  0  0  0  0  0  0  0
    7.2605   14.5413   24.7958 H    0  0  0  0  0  0  0  0  0  0  0  0
    8.4051   15.1688   21.0249 H    0  0  0  0  0  0  0  0  0  0  0  0
    9.9726   14.6940   20.4291 H    0  0  0  0  0  0  0  0  0  0  0  0
    9.2635   16.9340   22.4468 H    0  0  0  0  0  0  0  0  0  0  0  0
    8.5451   18.7480   21.3583 H    0  0  0  0  0  0  0  0  0  0  0  0
    9.1186   19.2575   19.7846 H    0  0  0  0  0  0  0  0  0  0  0  0
   11.7690   17.5318   22.4827 H    0  0  0  0  0  0  0  0  0  0  0  0
   12.0485   16.1686   21.4307 H    0  0  0  0  0  0  0  0  0  0  0  0
   12.7301   15.5852   23.6839 H    0  0  0  0  0  0  0  0  0  0  0  0
    9.9256   15.2885   24.8311 H    0  0  0  0  0  0  0  0  0  0  0  0
   11.3785   14.2952   25.2875 H    0  0  0  0  0  0  0  0  0  0  0  0
   11.5574   13.4053   22.8214 H    0  0  0  0  0  0  0  0  0  0  0  0
 13 14  1  0  0  0  0
 12 13  1  0  0  0  0
 11 12  2  0  0  0  0
 10 11  1  0  0  0  0
  9 10  2  0  0  0  0
  8  9  1  0  0  0  0
  7  8  2  0  0  0  0
  6  7  1  0  0  0  0
  5  6  2  0  0  0  0
  4  5  1  0  0  0  0
  3  4  2  0  0  0  0
  2  3  1  0  0  0  0
  1  2  1  0  0  0  0
 26  1  1  0  0  0  0
 27  1  1  0  0  0  0
 28  1  1  0  0  0  0
 29  4  1  0  0  0  0
 30  5  1  0  0  0  0
 31  8  1  0  0  0  0
 32  9  1  0  0  0  0
 33 10  1  0  0  0  0
 15 14  2  0  0  0  0
 16 14  1  0  0  0  0
 17 16  1  0  0  0  0
 18 17  1  0  0  0  0
 34 17  1  0  0  0  0
 35 17  1  0  0  0  0
 19 18  1  0  0  0  0
 22 18  1  0  0  0  0
 36 18  1  0  0  0  0
 20 19  1  0  0  0  0
 21 19  2  0  0  0  0
 37 20  1  0  0  0  0
 38 20  1  0  0  0  0
 39 22  1  0  0  0  0
 40 22  1  0  0  0  0
 23 22  1  0  0  0  0
 24 23  1  0  0  0  0
 41 23  1  0  0  0  0
 42 24  1  0  0  0  0
 43 24  1  0  0  0  0
 25 24  1  0  0  0  0
 44 25  1  0  0  0  0
 11  6  1  0  0  0  0
 12  3  1  0  0  0  0
 25 16  1  0  0  0  0
 25 23  1  0  0  0  0
M  END
>  <FittedScore>
-23.11

$$$$
