A71EV2A-x7465b_best-RMSD
  FITTED

 44 47     0  0  0  0  0  0  0999 V2000
    9.0529    8.9959   23.5086 C    0  0  0  0  0  0  0  0  0  0  0  0
    9.3148   10.6037   24.2989 S    0  0  0  0  0  0  0  0  0  0  0  0
    7.8277   11.0236   25.2286 C    0  0  0  0  0  0  0  0  0  0  0  0
    7.0810   10.0190   25.8698 C    0  0  0  0  0  0  0  0  0  0  0  0
    5.9108   10.3319   26.5663 C    0  0  0  0  0  0  0  0  0  0  0  0
    5.4074   11.6412   26.5773 C    0  0  0  0  0  0  0  0  0  0  0  0
    4.1738   11.8741   27.1186 N    0  0  0  0  0  0  0  0  0  0  0  0
    3.6225   13.1137   27.0330 C    0  0  0  0  0  0  0  0  0  0  0  0
    4.3098   14.1927   26.4602 C    0  0  0  0  0  0  0  0  0  0  0  0
    5.6075   13.9847   25.9624 C    0  0  0  0  0  0  0  0  0  0  0  0
    6.1664   12.6833   25.9737 C    0  0  0  0  0  0  0  0  0  0  0  0
    7.3937   12.3694   25.3311 C    0  0  0  0  0  0  0  0  0  0  0  0
    8.1630   13.3646   24.7514 O    0  0  0  0  0  0  0  0  0  0  0  0
    8.1689   13.5988   23.4094 C    0  0  0  0  0  0  0  0  0  0  0  0
    7.2549   13.2442   22.6851 O    0  0  0  0  0  0  0  0  0  0  0  0
    9.3160   14.1192   22.8863 N    0  0  0  0  0  0  0  0  0  0  0  0
    9.4571   14.5802   21.4984 C    0  0  0  0  0  0  0  0  0  0  0  0
   10.1807   15.9516   21.4013 C    0  0  0  0  0  0  0  0  0  0  0  0
   10.6013   16.1958   19.9643 C    0  0  0  0  0  0  0  0  0  0  0  0
   11.6369   15.4798   19.4749 N    0  0  0  0  0  0  0  0  0  0  0  0
    9.9485   16.9221   19.2499 O    0  0  0  0  0  0  0  0  0  0  0  0
   11.2876   16.3197   22.4693 C    0  0  0  0  0  0  0  0  0  0  0  0
   11.6054   15.1328   23.3871 C    0  0  0  0  0  0  0  0  0  0  0  0
   11.0002   15.0300   24.7693 C    0  0  0  0  0  0  0  0  0  0  0  0
   10.5700   14.0851   23.6955 C    0  0  0  0  0  0  0  0  0  0  0  0
    8.9815    8.2118   24.2589 H    0  0  0  0  0  0  0  0  0  0  0  0
    9.8981    8.8055   22.8447 H    0  0  0  0  0  0  0  0  0  0  0  0
    8.1313    9.0489   22.9240 H    0  0  0  0  0  0  0  0  0  0  0  0
    7.3872    8.9797   25.8343 H    0  0  0  0  0  0  0  0  0  0  0  0
    5.3726    9.5298   27.0700 H    0  0  0  0  0  0  0  0  0  0  0  0
    2.6105   13.2738   27.3960 H    0  0  0  0  0  0  0  0  0  0  0  0
    3.8353   15.1693   26.3700 H    0  0  0  0  0  0  0  0  0  0  0  0
    6.1366   14.8308   25.5292 H    0  0  0  0  0  0  0  0  0  0  0  0
    8.4918   14.6750   20.9933 H    0  0  0  0  0  0  0  0  0  0  0  0
    9.9973   13.7981   20.9575 H    0  0  0  0  0  0  0  0  0  0  0  0
    9.3881   16.6818   21.6070 H    0  0  0  0  0  0  0  0  0  0  0  0
   12.0183   15.7071   18.5636 H    0  0  0  0  0  0  0  0  0  0  0  0
   12.1233   14.8335   20.0781 H    0  0  0  0  0  0  0  0  0  0  0  0
   10.9280   17.1675   23.0629 H    0  0  0  0  0  0  0  0  0  0  0  0
   12.2000   16.6914   21.9934 H    0  0  0  0  0  0  0  0  0  0  0  0
   12.6288   14.7812   23.2754 H    0  0  0  0  0  0  0  0  0  0  0  0
   10.2788   15.7727   25.0935 H    0  0  0  0  0  0  0  0  0  0  0  0
   11.6159   14.6107   25.5594 H    0  0  0  0  0  0  0  0  0  0  0  0
   10.8333   13.0358   23.6005 H    0  0  0  0  0  0  0  0  0  0  0  0
 13 14  1  0  0  0  0
 12 13  1  0  0  0  0
 11 12  2  0  0  0  0
 10 11  1  0  0  0  0
  9 10  2  0  0  0  0
  8  9  1  0  0  0  0
  7  8  2  0  0  0  0
  6  7  1  0  0  0  0
  5  6  2  0  0  0  0
  4  5  1  0  0  0  0
  3  4  2  0  0  0  0
  2  3  1  0  0  0  0
  1  2  1  0  0  0  0
 26  1  1  0  0  0  0
 27  1  1  0  0  0  0
 28  1  1  0  0  0  0
 29  4  1  0  0  0  0
 30  5  1  0  0  0  0
 31  8  1  0  0  0  0
 32  9  1  0  0  0  0
 33 10  1  0  0  0  0
 15 14  2  0  0  0  0
 16 14  1  0  0  0  0
 17 16  1  0  0  0  0
 18 17  1  0  0  0  0
 34 17  1  0  0  0  0
 35 17  1  0  0  0  0
 19 18  1  0  0  0  0
 22 18  1  0  0  0  0
 36 18  1  0  0  0  0
 20 19  1  0  0  0  0
 21 19  2  0  0  0  0
 37 20  1  0  0  0  0
 38 20  1  0  0  0  0
 39 22  1  0  0  0  0
 40 22  1  0  0  0  0
 23 22  1  0  0  0  0
 24 23  1  0  0  0  0
 41 23  1  0  0  0  0
 42 24  1  0  0  0  0
 43 24  1  0  0  0  0
 25 24  1  0  0  0  0
 44 25  1  0  0  0  0
 11  6  1  0  0  0  0
 12  3  1  0  0  0  0
 25 16  1  0  0  0  0
 25 23  1  0  0  0  0
M  END
>  <FittedScore>
-26.97

$$$$
