A71EV2A-x4445b_best-RMSD
  FITTED

 43 44     0  0  0  0  0  0  0999 V2000
    9.6268   16.7083   19.3219 O    0  0  0  0  0  0  0  0  0  0  0  0
   10.3664   15.7940   19.6161 C    0  0  0  0  0  0  0  0  0  0  0  0
   11.0465   15.1190   18.6664 N    0  0  0  0  0  0  0  0  0  0  0  0
   10.4846   15.2679   21.0357 C    0  0  0  0  0  0  0  0  0  0  0  0
   11.2589   16.2738   21.9394 C    0  0  0  0  0  0  0  0  0  0  0  0
   11.2357   15.8345   23.4240 C    0  0  0  0  0  0  0  0  0  0  0  0
    9.8014   15.4404   23.8901 C    0  0  0  0  0  0  0  0  0  0  0  0
    9.0658   14.9535   21.6023 C    0  0  0  0  0  0  0  0  0  0  0  0
    9.1168   14.4436   23.0001 N    0  0  0  0  0  0  0  0  0  0  0  0
    8.4329   13.3128   23.3848 C    0  0  0  0  0  0  0  0  0  0  0  0
    7.4018   13.0049   22.8103 O    0  0  0  0  0  0  0  0  0  0  0  0
    8.9920   12.2830   24.3864 C    0  0  0  0  0  0  0  0  0  0  0  0
   10.4550   12.4136   24.8829 C    0  0  0  0  0  0  0  0  0  0  0  0
    7.9568   11.9729   25.4912 C    0  0  0  0  0  0  0  0  0  0  0  0
    7.4191   12.9619   26.3520 C    0  0  0  0  0  0  0  0  0  0  0  0
    7.8522   14.2724   26.2951 O    0  0  0  0  0  0  0  0  0  0  0  0
    6.9376   15.3350   25.9220 C    0  0  0  0  0  0  0  0  0  0  0  0
    7.4520   10.6601   25.5927 C    0  0  0  0  0  0  0  0  0  0  0  0
    6.4257   10.3503   26.4912 C    0  0  0  0  0  0  0  0  0  0  0  0
    5.9032   11.3297   27.3356 C    0  0  0  0  0  0  0  0  0  0  0  0
    6.4120   12.6288   27.2801 C    0  0  0  0  0  0  0  0  0  0  0  0
   10.8914   15.3521   17.6974 H    0  0  0  0  0  0  0  0  0  0  0  0
   11.6300   14.3185   18.8951 H    0  0  0  0  0  0  0  0  0  0  0  0
   11.0473   14.3260   21.0255 H    0  0  0  0  0  0  0  0  0  0  0  0
   12.2921   16.3628   21.5916 H    0  0  0  0  0  0  0  0  0  0  0  0
   10.8116   17.2701   21.8616 H    0  0  0  0  0  0  0  0  0  0  0  0
   11.9245   14.9983   23.5678 H    0  0  0  0  0  0  0  0  0  0  0  0
   11.6033   16.6550   24.0462 H    0  0  0  0  0  0  0  0  0  0  0  0
    9.8535   15.1142   24.9217 H    0  0  0  0  0  0  0  0  0  0  0  0
    9.1887   16.3464   23.9299 H    0  0  0  0  0  0  0  0  0  0  0  0
    8.6011   14.2304   20.9246 H    0  0  0  0  0  0  0  0  0  0  0  0
    8.4185   15.8371   21.5756 H    0  0  0  0  0  0  0  0  0  0  0  0
    9.0681   11.3889   23.7569 H    0  0  0  0  0  0  0  0  0  0  0  0
   10.7992   11.4568   25.2767 H    0  0  0  0  0  0  0  0  0  0  0  0
   10.5516   13.1278   25.7014 H    0  0  0  0  0  0  0  0  0  0  0  0
   11.1307   12.6869   24.0697 H    0  0  0  0  0  0  0  0  0  0  0  0
    7.4723   16.2855   25.9379 H    0  0  0  0  0  0  0  0  0  0  0  0
    6.1062   15.4019   26.6255 H    0  0  0  0  0  0  0  0  0  0  0  0
    6.5417   15.1654   24.9161 H    0  0  0  0  0  0  0  0  0  0  0  0
    7.8293    9.8640   24.9525 H    0  0  0  0  0  0  0  0  0  0  0  0
    6.0340    9.3340   26.5299 H    0  0  0  0  0  0  0  0  0  0  0  0
    5.1111   11.0760   28.0387 H    0  0  0  0  0  0  0  0  0  0  0  0
    6.0130   13.3752   27.9605 H    0  0  0  0  0  0  0  0  0  0  0  0
  9 10  1  0  0  0  0
  7  9  1  0  0  0  0
  6  7  1  0  0  0  0
  5  6  1  0  0  0  0
  4  5  1  0  0  0  0
  2  4  1  0  0  0  0
  1  2  2  0  0  0  0
  3  2  1  0  0  0  0
 22  3  1  0  0  0  0
 23  3  1  0  0  0  0
 24  4  1  0  0  0  0
 25  5  1  0  0  0  0
 26  5  1  0  0  0  0
 27  6  1  0  0  0  0
 28  6  1  0  0  0  0
 29  7  1  0  0  0  0
 30  7  1  0  0  0  0
  8  4  1  0  0  0  0
 31  8  1  0  0  0  0
 32  8  1  0  0  0  0
 11 10  2  0  0  0  0
 12 10  1  0  0  0  0
 13 12  1  0  0  0  0
 33 12  1  0  0  0  0
 34 13  1  0  0  0  0
 35 13  1  0  0  0  0
 36 13  1  0  0  0  0
 14 12  1  0  0  0  0
 15 14  1  0  0  0  0
 21 15  2  0  0  0  0
 16 15  1  0  0  0  0
 17 16  1  0  0  0  0
 37 17  1  0  0  0  0
 38 17  1  0  0  0  0
 39 17  1  0  0  0  0
 18 14  2  0  0  0  0
 40 18  1  0  0  0  0
 19 18  1  0  0  0  0
 41 19  1  0  0  0  0
 20 19  2  0  0  0  0
 42 20  1  0  0  0  0
 43 21  1  0  0  0  0
  9  8  1  0  0  0  0
 21 20  1  0  0  0  0
M  END
>  <FittedScore>
-32.53

$$$$
