A71EV2A-x7420a_lowest-energy
  FITTED

 62 64     0  0  0  0  0  0  0999 V2000
    9.3536    8.5218   23.4392 C    0  0  0  0  0  0  0  0  0  0  0  0
    9.3888   10.2420   23.9888 S    0  0  0  0  0  0  0  0  0  0  0  0
    7.9748   10.5074   25.0586 C    0  0  0  0  0  0  0  0  0  0  0  0
    7.2043    9.4387   25.4161 N    0  0  0  0  0  0  0  0  0  0  0  0
    6.1170    9.6678   26.2042 C    0  0  0  0  0  0  0  0  0  0  0  0
    5.7217   10.8911   26.6449 N    0  0  0  0  0  0  0  0  0  0  0  0
    6.4600   11.9777   26.2744 C    0  0  0  0  0  0  0  0  0  0  0  0
    5.9769   13.2096   26.6929 N    0  0  0  0  0  0  0  0  0  0  0  0
    6.2813   13.6936   28.0648 C    0  0  0  0  0  0  0  0  0  0  0  0
    6.9847   15.0800   28.0479 C    0  0  0  0  0  0  0  0  0  0  0  0
    6.2915   16.1096   27.1117 C    0  0  0  0  0  0  0  0  0  0  0  0
    5.9232   15.5241   25.7177 C    0  0  0  0  0  0  0  0  0  0  0  0
    5.2130   14.1177   25.7699 C    0  0  0  0  0  0  0  0  0  0  0  0
    3.6690   14.2405   26.1191 C    0  0  0  0  0  0  0  0  0  0  0  0
    2.8318   14.7621   24.9105 C    0  0  0  0  0  0  0  0  0  0  0  0
    3.0052   12.9312   26.6398 C    0  0  0  0  0  0  0  0  0  0  0  0
    7.6481   11.8181   25.5016 C    0  0  0  0  0  0  0  0  0  0  0  0
    8.5296   13.0139   25.0957 C    0  0  0  0  0  0  0  0  0  0  0  0
    8.2491   13.5492   23.6852 C    0  0  0  0  0  0  0  0  0  0  0  0
    7.3770   13.0279   23.0024 O    0  0  0  0  0  0  0  0  0  0  0  0
    9.0009   14.6060   23.2151 N    0  0  0  0  0  0  0  0  0  0  0  0
    9.9514   15.4657   24.0120 C    0  0  0  0  0  0  0  0  0  0  0  0
   11.3742   15.5900   23.3950 C    0  0  0  0  0  0  0  0  0  0  0  0
   11.3312   16.0021   21.9026 C    0  0  0  0  0  0  0  0  0  0  0  0
   10.3401   15.0979   21.1231 C    0  0  0  0  0  0  0  0  0  0  0  0
   10.2734   15.5395   19.6707 C    0  0  0  0  0  0  0  0  0  0  0  0
   10.8254   14.7018   18.7789 N    0  0  0  0  0  0  0  0  0  0  0  0
    9.6642   16.5198   19.3031 O    0  0  0  0  0  0  0  0  0  0  0  0
    8.9339   15.0752   21.7966 C    0  0  0  0  0  0  0  0  0  0  0  0
    8.4476    8.3498   22.8507 H    0  0  0  0  0  0  0  0  0  0  0  0
    9.3550    7.8644   24.3095 H    0  0  0  0  0  0  0  0  0  0  0  0
   10.2287    8.3023   22.8249 H    0  0  0  0  0  0  0  0  0  0  0  0
    5.5098    8.8132   26.4903 H    0  0  0  0  0  0  0  0  0  0  0  0
    6.9275   12.9915   28.6004 H    0  0  0  0  0  0  0  0  0  0  0  0
    5.3674   13.7692   28.6588 H    0  0  0  0  0  0  0  0  0  0  0  0
    8.0329   14.9671   27.7583 H    0  0  0  0  0  0  0  0  0  0  0  0
    6.9990   15.4822   29.0649 H    0  0  0  0  0  0  0  0  0  0  0  0
    6.9534   16.9689   26.9735 H    0  0  0  0  0  0  0  0  0  0  0  0
    5.3900   16.4918   27.5966 H    0  0  0  0  0  0  0  0  0  0  0  0
    6.8314   15.4609   25.1224 H    0  0  0  0  0  0  0  0  0  0  0  0
    5.3150   16.2605   25.1909 H    0  0  0  0  0  0  0  0  0  0  0  0
    5.2727   13.7103   24.7545 H    0  0  0  0  0  0  0  0  0  0  0  0
    3.5522   14.9709   26.9230 H    0  0  0  0  0  0  0  0  0  0  0  0
    3.2063   15.7103   24.5233 H    0  0  0  0  0  0  0  0  0  0  0  0
    1.7921   14.9372   25.2018 H    0  0  0  0  0  0  0  0  0  0  0  0
    2.8336   14.0425   24.0867 H    0  0  0  0  0  0  0  0  0  0  0  0
    3.1895   12.0954   25.9598 H    0  0  0  0  0  0  0  0  0  0  0  0
    1.9228   13.0416   26.7414 H    0  0  0  0  0  0  0  0  0  0  0  0
    3.3710   12.6614   27.6332 H    0  0  0  0  0  0  0  0  0  0  0  0
    9.5871   12.7494   25.1871 H    0  0  0  0  0  0  0  0  0  0  0  0
    8.4174   13.8118   25.8195 H    0  0  0  0  0  0  0  0  0  0  0  0
   10.0982   15.1271   25.0362 H    0  0  0  0  0  0  0  0  0  0  0  0
    9.5156   16.4638   24.1089 H    0  0  0  0  0  0  0  0  0  0  0  0
   11.8947   14.6323   23.4907 H    0  0  0  0  0  0  0  0  0  0  0  0
   11.9574   16.3247   23.9573 H    0  0  0  0  0  0  0  0  0  0  0  0
   12.3314   15.9025   21.4725 H    0  0  0  0  0  0  0  0  0  0  0  0
   11.0512   17.0573   21.8124 H    0  0  0  0  0  0  0  0  0  0  0  0
   10.7267   14.0712   21.1774 H    0  0  0  0  0  0  0  0  0  0  0  0
   11.1165   13.7781   19.0855 H    0  0  0  0  0  0  0  0  0  0  0  0
   10.7938   14.9197   17.7892 H    0  0  0  0  0  0  0  0  0  0  0  0
    8.2797   14.4554   21.1750 H    0  0  0  0  0  0  0  0  0  0  0  0
    8.4792   16.0722   21.7882 H    0  0  0  0  0  0  0  0  0  0  0  0
 17 18  1  0  0  0  0
  7 17  2  0  0  0  0
  6  7  1  0  0  0  0
  5  6  2  0  0  0  0
  4  5  1  0  0  0  0
  3  4  2  0  0  0  0
  2  3  1  0  0  0  0
  1  2  1  0  0  0  0
 30  1  1  0  0  0  0
 31  1  1  0  0  0  0
 32  1  1  0  0  0  0
 33  5  1  0  0  0  0
  8  7  1  0  0  0  0
  9  8  1  0  0  0  0
 10  9  1  0  0  0  0
 34  9  1  0  0  0  0
 35  9  1  0  0  0  0
 11 10  1  0  0  0  0
 36 10  1  0  0  0  0
 37 10  1  0  0  0  0
 12 11  1  0  0  0  0
 38 11  1  0  0  0  0
 39 11  1  0  0  0  0
 13 12  1  0  0  0  0
 40 12  1  0  0  0  0
 41 12  1  0  0  0  0
 14 13  1  0  0  0  0
 42 13  1  0  0  0  0
 15 14  1  0  0  0  0
 16 14  1  0  0  0  0
 43 14  1  0  0  0  0
 44 15  1  0  0  0  0
 45 15  1  0  0  0  0
 46 15  1  0  0  0  0
 47 16  1  0  0  0  0
 48 16  1  0  0  0  0
 49 16  1  0  0  0  0
 19 18  1  0  0  0  0
 50 18  1  0  0  0  0
 51 18  1  0  0  0  0
 20 19  2  0  0  0  0
 21 19  1  0  0  0  0
 22 21  1  0  0  0  0
 23 22  1  0  0  0  0
 52 22  1  0  0  0  0
 53 22  1  0  0  0  0
 24 23  1  0  0  0  0
 54 23  1  0  0  0  0
 55 23  1  0  0  0  0
 25 24  1  0  0  0  0
 56 24  1  0  0  0  0
 57 24  1  0  0  0  0
 26 25  1  0  0  0  0
 29 25  1  0  0  0  0
 58 25  1  0  0  0  0
 27 26  1  0  0  0  0
 28 26  2  0  0  0  0
 59 27  1  0  0  0  0
 60 27  1  0  0  0  0
 61 29  1  0  0  0  0
 62 29  1  0  0  0  0
 13  8  1  0  0  0  0
 17  3  1  0  0  0  0
 29 21  1  0  0  0  0
M  END
>  <FittedScore>
-35.76

$$$$
