A71EV2A-x7309a_lowest-energy
  FITTED

 60 62     0  0  0  0  0  0  0999 V2000
    9.5387    8.6433   23.3904 C    0  0  0  0  0  0  0  0  0  0  0  0
    9.4474   10.3691   23.9693 S    0  0  0  0  0  0  0  0  0  0  0  0
    7.9829   10.5133   24.9893 C    0  0  0  0  0  0  0  0  0  0  0  0
    7.3563    9.3543   25.3224 N    0  0  0  0  0  0  0  0  0  0  0  0
    6.2559    9.4197   26.1072 C    0  0  0  0  0  0  0  0  0  0  0  0
    5.6960   10.5694   26.5432 N    0  0  0  0  0  0  0  0  0  0  0  0
    6.2749   11.7623   26.2032 C    0  0  0  0  0  0  0  0  0  0  0  0
    5.6130   12.9062   26.6565 N    0  0  0  0  0  0  0  0  0  0  0  0
    5.1518   13.9703   25.7407 C    0  0  0  0  0  0  0  0  0  0  0  0
    4.0576   14.7450   26.4948 C    0  0  0  0  0  0  0  0  0  0  0  0
    4.2210   14.3525   27.9688 C    0  0  0  0  0  0  0  0  0  0  0  0
    4.8070   12.9328   27.9080 C    0  0  0  0  0  0  0  0  0  0  0  0
    5.6073   12.5786   29.1833 C    0  0  0  0  0  0  0  0  0  0  0  0
    6.7879   12.8806   29.2326 O    0  0  0  0  0  0  0  0  0  0  0  0
    4.9946   11.9335   30.2401 N    0  0  0  0  0  0  0  0  0  0  0  0
    3.5902   11.4236   30.2326 C    0  0  0  0  0  0  0  0  0  0  0  0
    5.7155   11.5684   31.4945 C    0  0  0  0  0  0  0  0  0  0  0  0
    7.4879   11.7737   25.4350 C    0  0  0  0  0  0  0  0  0  0  0  0
    8.2762   13.0618   25.1012 C    0  0  0  0  0  0  0  0  0  0  0  0
    8.0635   13.6088   23.6783 C    0  0  0  0  0  0  0  0  0  0  0  0
    7.2994   13.0279   22.9252 O    0  0  0  0  0  0  0  0  0  0  0  0
    8.7883   14.6997   23.2434 N    0  0  0  0  0  0  0  0  0  0  0  0
    9.7477   15.5172   24.0605 C    0  0  0  0  0  0  0  0  0  0  0  0
   11.2005   15.4458   23.5159 C    0  0  0  0  0  0  0  0  0  0  0  0
   11.2771   15.8487   22.0187 C    0  0  0  0  0  0  0  0  0  0  0  0
   10.2036   15.0918   21.1779 C    0  0  0  0  0  0  0  0  0  0  0  0
   10.2234   15.5773   19.7312 C    0  0  0  0  0  0  0  0  0  0  0  0
   10.8029   14.7522   18.8368 N    0  0  0  0  0  0  0  0  0  0  0  0
    9.7551   16.6391   19.3756 O    0  0  0  0  0  0  0  0  0  0  0  0
    8.7831   15.1915   21.8262 C    0  0  0  0  0  0  0  0  0  0  0  0
   10.4077    8.5236   22.7402 H    0  0  0  0  0  0  0  0  0  0  0  0
    8.6370    8.3951   22.8252 H    0  0  0  0  0  0  0  0  0  0  0  0
    9.6388    7.9615   24.2372 H    0  0  0  0  0  0  0  0  0  0  0  0
    5.7810    8.4853   26.3944 H    0  0  0  0  0  0  0  0  0  0  0  0
    4.7548   13.5549   24.8097 H    0  0  0  0  0  0  0  0  0  0  0  0
    5.9440   14.6712   25.4783 H    0  0  0  0  0  0  0  0  0  0  0  0
    3.0675   14.4567   26.1303 H    0  0  0  0  0  0  0  0  0  0  0  0
    4.1664   15.8239   26.3605 H    0  0  0  0  0  0  0  0  0  0  0  0
    3.2673   14.3748   28.5041 H    0  0  0  0  0  0  0  0  0  0  0  0
    4.9054   15.0454   28.4679 H    0  0  0  0  0  0  0  0  0  0  0  0
    3.9581   12.2573   27.7663 H    0  0  0  0  0  0  0  0  0  0  0  0
    3.2740   10.9735   31.1777 H    0  0  0  0  0  0  0  0  0  0  0  0
    3.4782   10.6531   29.4656 H    0  0  0  0  0  0  0  0  0  0  0  0
    2.8890   12.2363   30.0280 H    0  0  0  0  0  0  0  0  0  0  0  0
    6.6216   12.1585   31.6506 H    0  0  0  0  0  0  0  0  0  0  0  0
    6.0071   10.5168   31.4566 H    0  0  0  0  0  0  0  0  0  0  0  0
    5.0968   11.7329   32.3806 H    0  0  0  0  0  0  0  0  0  0  0  0
    9.3409   12.8776   25.2527 H    0  0  0  0  0  0  0  0  0  0  0  0
    8.0525   13.8313   25.8423 H    0  0  0  0  0  0  0  0  0  0  0  0
    9.7720   15.2409   25.1125 H    0  0  0  0  0  0  0  0  0  0  0  0
    9.4091   16.5586   24.0632 H    0  0  0  0  0  0  0  0  0  0  0  0
   11.5979   14.4332   23.6395 H    0  0  0  0  0  0  0  0  0  0  0  0
   11.8425   16.1095   24.0993 H    0  0  0  0  0  0  0  0  0  0  0  0
   12.2735   15.6039   21.6379 H    0  0  0  0  0  0  0  0  0  0  0  0
   11.1498   16.9342   21.9197 H    0  0  0  0  0  0  0  0  0  0  0  0
   10.4734   14.0276   21.1984 H    0  0  0  0  0  0  0  0  0  0  0  0
   11.1208   13.8298   19.1311 H    0  0  0  0  0  0  0  0  0  0  0  0
   10.7592   14.9731   17.8480 H    0  0  0  0  0  0  0  0  0  0  0  0
    8.0794   14.6468   21.1905 H    0  0  0  0  0  0  0  0  0  0  0  0
    8.4233   16.2264   21.8104 H    0  0  0  0  0  0  0  0  0  0  0  0
 18 19  1  0  0  0  0
  7 18  2  0  0  0  0
  6  7  1  0  0  0  0
  5  6  2  0  0  0  0
  4  5  1  0  0  0  0
  3  4  2  0  0  0  0
  2  3  1  0  0  0  0
  1  2  1  0  0  0  0
 31  1  1  0  0  0  0
 32  1  1  0  0  0  0
 33  1  1  0  0  0  0
 34  5  1  0  0  0  0
  8  7  1  0  0  0  0
  9  8  1  0  0  0  0
 10  9  1  0  0  0  0
 35  9  1  0  0  0  0
 36  9  1  0  0  0  0
 11 10  1  0  0  0  0
 37 10  1  0  0  0  0
 38 10  1  0  0  0  0
 12 11  1  0  0  0  0
 39 11  1  0  0  0  0
 40 11  1  0  0  0  0
 13 12  1  0  0  0  0
 41 12  1  0  0  0  0
 14 13  2  0  0  0  0
 15 13  1  0  0  0  0
 16 15  1  0  0  0  0
 17 15  1  0  0  0  0
 42 16  1  0  0  0  0
 43 16  1  0  0  0  0
 44 16  1  0  0  0  0
 45 17  1  0  0  0  0
 46 17  1  0  0  0  0
 47 17  1  0  0  0  0
 20 19  1  0  0  0  0
 48 19  1  0  0  0  0
 49 19  1  0  0  0  0
 21 20  2  0  0  0  0
 22 20  1  0  0  0  0
 23 22  1  0  0  0  0
 24 23  1  0  0  0  0
 50 23  1  0  0  0  0
 51 23  1  0  0  0  0
 25 24  1  0  0  0  0
 52 24  1  0  0  0  0
 53 24  1  0  0  0  0
 26 25  1  0  0  0  0
 54 25  1  0  0  0  0
 55 25  1  0  0  0  0
 27 26  1  0  0  0  0
 30 26  1  0  0  0  0
 56 26  1  0  0  0  0
 28 27  1  0  0  0  0
 29 27  2  0  0  0  0
 57 28  1  0  0  0  0
 58 28  1  0  0  0  0
 59 30  1  0  0  0  0
 60 30  1  0  0  0  0
 12  8  1  0  0  0  0
 18  3  1  0  0  0  0
 30 22  1  0  0  0  0
M  END
>  <FittedScore>
-35.97

$$$$
