A71EV2A-x4380a_best-RMSD
  FITTED

 36 37     0  0  0  0  0  0  0999 V2000
    9.3619   10.7411   23.8775 CL   0  0  0  0  0  0  0  0  0  0  0  0
    7.9119   10.9084   24.8154 C    0  0  0  0  0  0  0  0  0  0  0  0
    7.2760    9.7295   25.2236 C    0  0  0  0  0  0  0  0  0  0  0  0
    6.1247    9.7766   26.0200 C    0  0  0  0  0  0  0  0  0  0  0  0
    5.5910   11.0142   26.3924 C    0  0  0  0  0  0  0  0  0  0  0  0
    4.4803   11.0663   27.1398 F    0  0  0  0  0  0  0  0  0  0  0  0
    6.2046   12.2014   25.9839 C    0  0  0  0  0  0  0  0  0  0  0  0
    7.3706   12.1618   25.1944 C    0  0  0  0  0  0  0  0  0  0  0  0
    8.0200   13.4828   24.7915 C    0  0  0  0  0  0  0  0  0  0  0  0
    7.8727   13.8755   23.3113 C    0  0  0  0  0  0  0  0  0  0  0  0
    7.1101   13.2616   22.5768 O    0  0  0  0  0  0  0  0  0  0  0  0
    8.6247   14.9386   22.8483 N    0  0  0  0  0  0  0  0  0  0  0  0
    9.3698   15.9447   23.6886 C    0  0  0  0  0  0  0  0  0  0  0  0
   10.8797   16.0319   23.3404 C    0  0  0  0  0  0  0  0  0  0  0  0
   11.0887   16.3818   21.8404 C    0  0  0  0  0  0  0  0  0  0  0  0
    8.7685   15.2863   21.3949 C    0  0  0  0  0  0  0  0  0  0  0  0
   10.2573   15.4283   20.9260 C    0  0  0  0  0  0  0  0  0  0  0  0
   10.3578   15.8354   19.4531 C    0  0  0  0  0  0  0  0  0  0  0  0
    9.9260   16.8798   19.0029 O    0  0  0  0  0  0  0  0  0  0  0  0
   10.7936   14.8811   18.6095 N    0  0  0  0  0  0  0  0  0  0  0  0
    7.6842    8.7669   24.9308 H    0  0  0  0  0  0  0  0  0  0  0  0
    5.6429    8.8556   26.3399 H    0  0  0  0  0  0  0  0  0  0  0  0
    5.7693   13.1528   26.2833 H    0  0  0  0  0  0  0  0  0  0  0  0
    7.6007   14.2903   25.3996 H    0  0  0  0  0  0  0  0  0  0  0  0
    9.0770   13.4222   25.0681 H    0  0  0  0  0  0  0  0  0  0  0  0
    8.9111   16.9266   23.5396 H    0  0  0  0  0  0  0  0  0  0  0  0
    9.2918   15.7830   24.7612 H    0  0  0  0  0  0  0  0  0  0  0  0
   11.3588   16.7885   23.9680 H    0  0  0  0  0  0  0  0  0  0  0  0
   11.3598   15.0753   23.5742 H    0  0  0  0  0  0  0  0  0  0  0  0
   10.8189   17.4303   21.6652 H    0  0  0  0  0  0  0  0  0  0  0  0
   12.1502   16.2861   21.5998 H    0  0  0  0  0  0  0  0  0  0  0  0
    8.2196   16.2119   21.2017 H    0  0  0  0  0  0  0  0  0  0  0  0
    8.2996   14.5298   20.7591 H    0  0  0  0  0  0  0  0  0  0  0  0
   10.7049   14.4341   21.0506 H    0  0  0  0  0  0  0  0  0  0  0  0
   10.9613   13.9367   18.9477 H    0  0  0  0  0  0  0  0  0  0  0  0
   10.7844   15.0603   17.6096 H    0  0  0  0  0  0  0  0  0  0  0  0
  9 10  1  0  0  0  0
  8  9  1  0  0  0  0
  7  8  2  0  0  0  0
  5  7  1  0  0  0  0
  4  5  2  0  0  0  0
  3  4  1  0  0  0  0
  2  3  2  0  0  0  0
  1  2  1  0  0  0  0
 21  3  1  0  0  0  0
 22  4  1  0  0  0  0
  6  5  1  0  0  0  0
 23  7  1  0  0  0  0
 24  9  1  0  0  0  0
 25  9  1  0  0  0  0
 11 10  2  0  0  0  0
 12 10  1  0  0  0  0
 13 12  1  0  0  0  0
 26 13  1  0  0  0  0
 27 13  1  0  0  0  0
 14 13  1  0  0  0  0
 28 14  1  0  0  0  0
 29 14  1  0  0  0  0
 15 14  1  0  0  0  0
 30 15  1  0  0  0  0
 31 15  1  0  0  0  0
 16 12  1  0  0  0  0
 32 16  1  0  0  0  0
 33 16  1  0  0  0  0
 17 15  1  0  0  0  0
 18 17  1  0  0  0  0
 34 17  1  0  0  0  0
 19 18  2  0  0  0  0
 20 18  1  0  0  0  0
 35 20  1  0  0  0  0
 36 20  1  0  0  0  0
  8  2  1  0  0  0  0
 17 16  1  0  0  0  0
M  END
>  <FittedScore>
-33.02

$$$$
