A71EV2A-x5497a_best-RMSD
  FITTED

 40 41     0  0  0  0  0  0  0999 V2000
    6.1204   16.5462   23.8681 C    0  0  0  0  0  0  0  0  0  0  0  0
    5.6739   15.2616   23.2606 N    0  0  0  0  0  0  0  0  0  0  0  0
    4.2577   15.2862   22.7950 C    0  0  0  0  0  0  0  0  0  0  0  0
    6.4732   14.1496   23.0870 C    0  0  0  0  0  0  0  0  0  0  0  0
    6.0983   13.2371   22.3648 O    0  0  0  0  0  0  0  0  0  0  0  0
    7.8716   14.0709   23.7624 C    0  0  0  0  0  0  0  0  0  0  0  0
    8.2192   12.6007   24.1131 C    0  0  0  0  0  0  0  0  0  0  0  0
    7.3928   11.9388   25.0478 C    0  0  0  0  0  0  0  0  0  0  0  0
    7.5490   10.5706   25.3082 C    0  0  0  0  0  0  0  0  0  0  0  0
    8.5421    9.8440   24.6380 C    0  0  0  0  0  0  0  0  0  0  0  0
    9.4028   10.4892   23.7450 C    0  0  0  0  0  0  0  0  0  0  0  0
    9.2474   11.8567   23.4857 C    0  0  0  0  0  0  0  0  0  0  0  0
    8.9405   14.7777   22.9871 N    0  0  0  0  0  0  0  0  0  0  0  0
    8.9208   14.6643   21.5232 C    0  0  0  0  0  0  0  0  0  0  0  0
   10.3811   14.9399   21.1278 C    0  0  0  0  0  0  0  0  0  0  0  0
   10.5024   15.5078   19.7183 C    0  0  0  0  0  0  0  0  0  0  0  0
   10.9242   14.6241   18.7941 N    0  0  0  0  0  0  0  0  0  0  0  0
    9.9799   16.5469   19.3643 O    0  0  0  0  0  0  0  0  0  0  0  0
   10.9307   15.8001   22.2860 C    0  0  0  0  0  0  0  0  0  0  0  0
   10.0625   15.3831   23.4587 C    0  0  0  0  0  0  0  0  0  0  0  0
   10.3936   15.4605   24.6294 O    0  0  0  0  0  0  0  0  0  0  0  0
    5.4867   17.3937   23.5860 H    0  0  0  0  0  0  0  0  0  0  0  0
    7.1259   16.8150   23.5340 H    0  0  0  0  0  0  0  0  0  0  0  0
    6.1143   16.4678   24.9583 H    0  0  0  0  0  0  0  0  0  0  0  0
    3.6567   16.0710   23.2638 H    0  0  0  0  0  0  0  0  0  0  0  0
    3.7567   14.3429   23.0398 H    0  0  0  0  0  0  0  0  0  0  0  0
    4.2185   15.4185   21.7100 H    0  0  0  0  0  0  0  0  0  0  0  0
    7.8103   14.5709   24.7338 H    0  0  0  0  0  0  0  0  0  0  0  0
    6.5971   12.4831   25.5529 H    0  0  0  0  0  0  0  0  0  0  0  0
    6.8861   10.0775   26.0141 H    0  0  0  0  0  0  0  0  0  0  0  0
    8.6585    8.7795   24.8307 H    0  0  0  0  0  0  0  0  0  0  0  0
   10.1871    9.9316   23.2383 H    0  0  0  0  0  0  0  0  0  0  0  0
    9.9283   12.3075   22.7750 H    0  0  0  0  0  0  0  0  0  0  0  0
    8.2304   15.4078   21.1155 H    0  0  0  0  0  0  0  0  0  0  0  0
    8.6125   13.6737   21.1682 H    0  0  0  0  0  0  0  0  0  0  0  0
   10.9169   13.9834   21.1819 H    0  0  0  0  0  0  0  0  0  0  0  0
   11.0960   13.6510   19.0395 H    0  0  0  0  0  0  0  0  0  0  0  0
   10.8720   14.8757   17.8160 H    0  0  0  0  0  0  0  0  0  0  0  0
   10.8125   16.8688   22.0945 H    0  0  0  0  0  0  0  0  0  0  0  0
   11.9864   15.5867   22.4727 H    0  0  0  0  0  0  0  0  0  0  0  0
  6 13  1  0  0  0  0
  4  6  1  0  0  0  0
  2  4  1  0  0  0  0
  1  2  1  0  0  0  0
 22  1  1  0  0  0  0
 23  1  1  0  0  0  0
 24  1  1  0  0  0  0
  3  2  1  0  0  0  0
 25  3  1  0  0  0  0
 26  3  1  0  0  0  0
 27  3  1  0  0  0  0
  5  4  2  0  0  0  0
  7  6  1  0  0  0  0
 28  6  1  0  0  0  0
  8  7  2  0  0  0  0
  9  8  1  0  0  0  0
 29  8  1  0  0  0  0
 10  9  2  0  0  0  0
 30  9  1  0  0  0  0
 11 10  1  0  0  0  0
 31 10  1  0  0  0  0
 12 11  2  0  0  0  0
 32 11  1  0  0  0  0
 33 12  1  0  0  0  0
 14 13  1  0  0  0  0
 15 14  1  0  0  0  0
 34 14  1  0  0  0  0
 35 14  1  0  0  0  0
 16 15  1  0  0  0  0
 19 15  1  0  0  0  0
 36 15  1  0  0  0  0
 17 16  1  0  0  0  0
 18 16  2  0  0  0  0
 37 17  1  0  0  0  0
 38 17  1  0  0  0  0
 20 19  1  0  0  0  0
 39 19  1  0  0  0  0
 40 19  1  0  0  0  0
 21 20  2  0  0  0  0
 12  7  1  0  0  0  0
 20 13  1  0  0  0  0
M  END
>  <FittedScore>
-31.22

$$$$
