A71EV2A-x5721a_best-RMSD
  FITTED

 45 47     0  0  0  0  0  0  0999 V2000
    9.6785   15.3656   25.3355 O    0  0  0  0  0  0  0  0  0  0  0  0
    9.7772   15.4662   24.1239 C    0  0  0  0  0  0  0  0  0  0  0  0
   11.1832   15.3882   23.4796 C    0  0  0  0  0  0  0  0  0  0  0  0
   11.6947   13.9129   23.6235 C    0  0  0  0  0  0  0  0  0  0  0  0
   12.1590   16.3299   24.2514 C    0  0  0  0  0  0  0  0  0  0  0  0
   11.1904   15.8540   21.9828 C    0  0  0  0  0  0  0  0  0  0  0  0
   10.0601   15.1781   21.1741 C    0  0  0  0  0  0  0  0  0  0  0  0
   10.1316   15.5995   19.7126 C    0  0  0  0  0  0  0  0  0  0  0  0
    9.7397   16.6705   19.2848 O    0  0  0  0  0  0  0  0  0  0  0  0
   10.6448   14.6795   18.8775 N    0  0  0  0  0  0  0  0  0  0  0  0
    8.6778   15.4492   21.8230 C    0  0  0  0  0  0  0  0  0  0  0  0
    8.6563   15.4395   23.3173 N    0  0  0  0  0  0  0  0  0  0  0  0
    7.2755   15.2529   23.8622 C    0  0  0  0  0  0  0  0  0  0  0  0
    7.0290   13.8360   24.4007 C    0  0  0  0  0  0  0  0  0  0  0  0
    6.0203   13.6480   25.3801 C    0  0  0  0  0  0  0  0  0  0  0  0
    5.7492   12.3733   25.9084 C    0  0  0  0  0  0  0  0  0  0  0  0
    7.7736   12.7195   23.9539 C    0  0  0  0  0  0  0  0  0  0  0  0
    7.5089   11.4691   24.5127 C    0  0  0  0  0  0  0  0  0  0  0  0
    8.0795   10.2596   24.2692 N    0  0  0  0  0  0  0  0  0  0  0  0
    9.2888    9.9955   23.4645 C    0  0  0  0  0  0  0  0  0  0  0  0
    6.5101   11.3003   25.4397 C    0  0  0  0  0  0  0  0  0  0  0  0
    6.4447    9.9558   25.7231 C    0  0  0  0  0  0  0  0  0  0  0  0
    7.4410    9.2269   24.8992 N    0  0  0  0  0  0  0  0  0  0  0  0
   12.6615   13.7812   23.1265 H    0  0  0  0  0  0  0  0  0  0  0  0
   10.9982   13.1880   23.1946 H    0  0  0  0  0  0  0  0  0  0  0  0
   11.8231   13.6302   24.6715 H    0  0  0  0  0  0  0  0  0  0  0  0
   13.1436   16.3727   23.7742 H    0  0  0  0  0  0  0  0  0  0  0  0
   12.3142   15.9996   25.2831 H    0  0  0  0  0  0  0  0  0  0  0  0
   11.7620   17.3492   24.2989 H    0  0  0  0  0  0  0  0  0  0  0  0
   11.0571   16.9409   21.9283 H    0  0  0  0  0  0  0  0  0  0  0  0
   12.1596   15.6392   21.5198 H    0  0  0  0  0  0  0  0  0  0  0  0
   10.2030   14.0952   21.2317 H    0  0  0  0  0  0  0  0  0  0  0  0
   10.8261   13.7418   19.2236 H    0  0  0  0  0  0  0  0  0  0  0  0
   10.6886   14.8571   17.8798 H    0  0  0  0  0  0  0  0  0  0  0  0
    8.2888   16.4214   21.5026 H    0  0  0  0  0  0  0  0  0  0  0  0
    7.9889   14.6940   21.4311 H    0  0  0  0  0  0  0  0  0  0  0  0
    7.1166   15.9944   24.6507 H    0  0  0  0  0  0  0  0  0  0  0  0
    6.5047   15.4823   23.1224 H    0  0  0  0  0  0  0  0  0  0  0  0
    5.4412   14.4958   25.7346 H    0  0  0  0  0  0  0  0  0  0  0  0
    4.9716   12.2282   26.6530 H    0  0  0  0  0  0  0  0  0  0  0  0
    8.5418   12.8001   23.1928 H    0  0  0  0  0  0  0  0  0  0  0  0
    9.0554    9.9914   22.3991 H    0  0  0  0  0  0  0  0  0  0  0  0
    9.7551    9.0318   23.6992 H    0  0  0  0  0  0  0  0  0  0  0  0
   10.0599   10.7551   23.6212 H    0  0  0  0  0  0  0  0  0  0  0  0
    5.7735    9.4497   26.4157 H    0  0  0  0  0  0  0  0  0  0  0  0
 11 12  1  0  0  0  0
  7 11  1  0  0  0  0
  8  7  1  0  0  0  0
  6  7  1  0  0  0  0
  3  6  1  0  0  0  0
  2  3  1  0  0  0  0
  1  2  2  0  0  0  0
  4  3  1  0  0  0  0
 24  4  1  0  0  0  0
 25  4  1  0  0  0  0
 26  4  1  0  0  0  0
  5  3  1  0  0  0  0
 27  5  1  0  0  0  0
 28  5  1  0  0  0  0
 29  5  1  0  0  0  0
 30  6  1  0  0  0  0
 31  6  1  0  0  0  0
 32  7  1  0  0  0  0
  9  8  2  0  0  0  0
 10  8  1  0  0  0  0
 33 10  1  0  0  0  0
 34 10  1  0  0  0  0
 35 11  1  0  0  0  0
 36 11  1  0  0  0  0
 13 12  1  0  0  0  0
 37 13  1  0  0  0  0
 38 13  1  0  0  0  0
 14 13  1  0  0  0  0
 15 14  1  0  0  0  0
 39 15  1  0  0  0  0
 16 15  2  0  0  0  0
 40 16  1  0  0  0  0
 17 14  2  0  0  0  0
 41 17  1  0  0  0  0
 18 17  1  0  0  0  0
 19 18  1  0  0  0  0
 23 19  1  0  0  0  0
 20 19  1  0  0  0  0
 42 20  1  0  0  0  0
 43 20  1  0  0  0  0
 44 20  1  0  0  0  0
 21 16  1  0  0  0  0
 22 21  1  0  0  0  0
 45 22  1  0  0  0  0
 12  2  1  0  0  0  0
 21 18  2  0  0  0  0
 23 22  2  0  0  0  0
M  END
>  <FittedScore>
-34.54

$$$$
