A71EV2A-x5802b_best-RMSD
  FITTED

 37 39     0  0  0  0  0  0  0999 V2000
   10.8993   14.9582   18.9208 N    0  0  0  0  0  0  0  0  0  0  0  0
   10.5822   15.9497   19.7404 C    0  0  0  0  0  0  0  0  0  0  0  0
   10.0793   16.9045   19.3275 O    0  0  0  0  0  0  0  0  0  0  0  0
   10.5220   15.5561   21.1710 C    0  0  0  0  0  0  0  0  0  0  0  0
   11.3407   16.3763   22.1289 C    0  0  0  0  0  0  0  0  0  0  0  0
   11.4335   15.9065   23.4987 C    0  0  0  0  0  0  0  0  0  0  0  0
   11.4626   14.5600   24.0862 C    0  0  0  0  0  0  0  0  0  0  0  0
   10.1633   15.2915   23.9430 C    0  0  0  0  0  0  0  0  0  0  0  0
    9.2339   14.5997   22.9823 N    0  0  0  0  0  0  0  0  0  0  0  0
    8.3999   13.5916   23.4074 C    0  0  0  0  0  0  0  0  0  0  0  0
    7.5813   13.2299   22.6186 O    0  0  0  0  0  0  0  0  0  0  0  0
    8.5989   12.9843   24.8433 C    0  0  0  0  0  0  0  0  0  0  0  0
    7.7159   11.7636   25.1184 C    0  0  0  0  0  0  0  0  0  0  0  0
    6.6354   11.9772   25.9309 C    0  0  0  0  0  0  0  0  0  0  0  0
    5.9609   10.9010   26.4644 C    0  0  0  0  0  0  0  0  0  0  0  0
    6.2803    9.5876   26.2761 C    0  0  0  0  0  0  0  0  0  0  0  0
    7.4149    9.3456   25.5079 C    0  0  0  0  0  0  0  0  0  0  0  0
    8.0826   10.4176   24.8571 C    0  0  0  0  0  0  0  0  0  0  0  0
    9.1836   10.0486   23.5736 CL   0  0  0  0  0  0  0  0  0  0  0  0
    9.0983   15.3379   21.6468 C    0  0  0  0  0  0  0  0  0  0  0  0
   10.9907   14.1117   19.4728 H    0  0  0  0  0  0  0  0  0  0  0  0
   10.8230   15.1116   17.9907 H    0  0  0  0  0  0  0  0  0  0  0  0
   11.0022   14.5331   21.1782 H    0  0  0  0  0  0  0  0  0  0  0  0
   11.9874   17.2324   21.9059 H    0  0  0  0  0  0  0  0  0  0  0  0
   12.2973   15.7810   21.9581 H    0  0  0  0  0  0  0  0  0  0  0  0
   12.0005   16.6421   24.1675 H    0  0  0  0  0  0  0  0  0  0  0  0
   11.7436   14.6133   25.1702 H    0  0  0  0  0  0  0  0  0  0  0  0
   11.8109   13.7084   23.5375 H    0  0  0  0  0  0  0  0  0  0  0  0
    9.5263   16.0282   24.4453 H    0  0  0  0  0  0  0  0  0  0  0  0
    8.4304   13.6712   25.6813 H    0  0  0  0  0  0  0  0  0  0  0  0
    9.6584   12.6940   25.0042 H    0  0  0  0  0  0  0  0  0  0  0  0
    6.3067   12.9816   26.1625 H    0  0  0  0  0  0  0  0  0  0  0  0
    5.1131   11.1717   27.0604 H    0  0  0  0  0  0  0  0  0  0  0  0
    5.6776    8.8058   26.7297 H    0  0  0  0  0  0  0  0  0  0  0  0
    7.7882    8.3246   25.4284 H    0  0  0  0  0  0  0  0  0  0  0  0
    8.6923   16.3370   21.6053 H    0  0  0  0  0  0  0  0  0  0  0  0
    8.6212   14.5947   20.9295 H    0  0  0  0  0  0  0  0  0  0  0  0
  9 10  1  0  0  0  0
  8  9  1  0  0  0  0
  7  8  1  0  0  0  0
  6  7  1  0  0  0  0
  5  6  1  0  0  0  0
  4  5  1  0  0  0  0
  2  4  1  0  0  0  0
  1  2  1  0  0  0  0
 21  1  1  0  0  0  0
 22  1  1  0  0  0  0
  3  2  2  0  0  0  0
 23  4  1  0  0  0  0
 24  5  1  0  0  0  0
 25  5  1  0  0  0  0
 26  6  1  0  0  0  0
 27  7  1  0  0  0  0
 28  7  1  0  0  0  0
 29  8  1  0  0  0  0
 20  9  1  0  0  0  0
 11 10  2  0  0  0  0
 12 10  1  0  0  0  0
 13 12  1  0  0  0  0
 30 12  1  0  0  0  0
 31 12  1  0  0  0  0
 14 13  2  0  0  0  0
 15 14  1  0  0  0  0
 32 14  1  0  0  0  0
 16 15  2  0  0  0  0
 33 15  1  0  0  0  0
 17 16  1  0  0  0  0
 34 16  1  0  0  0  0
 18 17  2  0  0  0  0
 35 17  1  0  0  0  0
 19 18  1  0  0  0  0
 36 20  1  0  0  0  0
 37 20  1  0  0  0  0
  8  6  1  0  0  0  0
 18 13  1  0  0  0  0
 20  4  1  0  0  0  0
M  END
>  <FittedScore>
-33.82

$$$$
