A71EV2A-x5082b_lowest-energy
  FITTED

 36 37     0  0  0  0  0  0  0999 V2000
    9.9331   16.8703   19.2132 O    0  0  0  0  0  0  0  0  0  0  0  0
   10.3782   15.8023   19.5952 C    0  0  0  0  0  0  0  0  0  0  0  0
   10.6970   14.8371   18.7172 N    0  0  0  0  0  0  0  0  0  0  0  0
   10.4233   15.3736   21.0539 C    0  0  0  0  0  0  0  0  0  0  0  0
   11.3456   16.3218   21.8757 C    0  0  0  0  0  0  0  0  0  0  0  0
   11.3258   15.9426   23.3784 C    0  0  0  0  0  0  0  0  0  0  0  0
    9.8697   15.7797   23.9056 C    0  0  0  0  0  0  0  0  0  0  0  0
    8.9900   15.2706   21.6680 C    0  0  0  0  0  0  0  0  0  0  0  0
    9.0503   14.8189   23.0888 N    0  0  0  0  0  0  0  0  0  0  0  0
    8.4603   13.6596   23.5370 C    0  0  0  0  0  0  0  0  0  0  0  0
    7.5622   13.1184   22.9063 O    0  0  0  0  0  0  0  0  0  0  0  0
    9.0303   13.0157   24.8089 C    0  0  0  0  0  0  0  0  0  0  0  0
    8.6734   11.5440   24.9174 C    0  0  0  0  0  0  0  0  0  0  0  0
    9.3809   10.5773   24.1727 C    0  0  0  0  0  0  0  0  0  0  0  0
    8.9487    9.2450   24.2134 C    0  0  0  0  0  0  0  0  0  0  0  0
    7.8269    8.9223   24.9939 C    0  0  0  0  0  0  0  0  0  0  0  0
    7.6004   11.2228   25.6916 N    0  0  0  0  0  0  0  0  0  0  0  0
    7.1850    9.9348   25.7303 C    0  0  0  0  0  0  0  0  0  0  0  0
    6.0491    9.6486   26.5643 C    0  0  0  0  0  0  0  0  0  0  0  0
    5.1518    9.4439   27.2295 N    0  0  0  0  0  0  0  0  0  0  0  0
   10.8779   13.8902   19.0453 H    0  0  0  0  0  0  0  0  0  0  0  0
   10.6227   15.0033   17.7244 H    0  0  0  0  0  0  0  0  0  0  0  0
   10.8680   14.3702   21.1322 H    0  0  0  0  0  0  0  0  0  0  0  0
   12.3684   16.2609   21.4936 H    0  0  0  0  0  0  0  0  0  0  0  0
   11.0264   17.3626   21.7597 H    0  0  0  0  0  0  0  0  0  0  0  0
   11.8757   15.0080   23.5248 H    0  0  0  0  0  0  0  0  0  0  0  0
   11.8451   16.7155   23.9525 H    0  0  0  0  0  0  0  0  0  0  0  0
    9.9079   15.5152   24.9624 H    0  0  0  0  0  0  0  0  0  0  0  0
    9.3763   16.7578   23.8882 H    0  0  0  0  0  0  0  0  0  0  0  0
    8.4000   14.5952   21.0406 H    0  0  0  0  0  0  0  0  0  0  0  0
    8.4752   16.2356   21.6142 H    0  0  0  0  0  0  0  0  0  0  0  0
   10.1222   13.1018   24.8222 H    0  0  0  0  0  0  0  0  0  0  0  0
    8.6570   13.5611   25.6840 H    0  0  0  0  0  0  0  0  0  0  0  0
   10.2329   10.8578   23.5558 H    0  0  0  0  0  0  0  0  0  0  0  0
    9.4739    8.4788   23.6480 H    0  0  0  0  0  0  0  0  0  0  0  0
    7.4741    7.8934   25.0380 H    0  0  0  0  0  0  0  0  0  0  0  0
  9 10  1  0  0  0  0
  7  9  1  0  0  0  0
  6  7  1  0  0  0  0
  5  6  1  0  0  0  0
  4  5  1  0  0  0  0
  2  4  1  0  0  0  0
  1  2  2  0  0  0  0
  3  2  1  0  0  0  0
 21  3  1  0  0  0  0
 22  3  1  0  0  0  0
 23  4  1  0  0  0  0
 24  5  1  0  0  0  0
 25  5  1  0  0  0  0
 26  6  1  0  0  0  0
 27  6  1  0  0  0  0
 28  7  1  0  0  0  0
 29  7  1  0  0  0  0
  8  4  1  0  0  0  0
 30  8  1  0  0  0  0
 31  8  1  0  0  0  0
 11 10  2  0  0  0  0
 12 10  1  0  0  0  0
 32 12  1  0  0  0  0
 33 12  1  0  0  0  0
 13 12  1  0  0  0  0
 14 13  1  0  0  0  0
 34 14  1  0  0  0  0
 15 14  2  0  0  0  0
 35 15  1  0  0  0  0
 16 15  1  0  0  0  0
 36 16  1  0  0  0  0
 17 13  2  0  0  0  0
 18 16  2  0  0  0  0
 19 18  1  0  0  0  0
 20 19  3  0  0  0  0
  9  8  1  0  0  0  0
 18 17  1  0  0  0  0
M  END
>  <FittedScore>
-36.58

$$$$
