A71EV2A-x4736a_best-RMSD
  FITTED

 37 38     0  0  0  0  0  0  0999 V2000
    9.6467   16.4933   19.3844 O    0  0  0  0  0  0  0  0  0  0  0  0
   10.2075   15.4843   19.7721 C    0  0  0  0  0  0  0  0  0  0  0  0
   10.7497   14.6303   18.8818 N    0  0  0  0  0  0  0  0  0  0  0  0
   10.1548   14.9944   21.2262 C    0  0  0  0  0  0  0  0  0  0  0  0
   10.9977   15.8919   22.1764 C    0  0  0  0  0  0  0  0  0  0  0  0
   10.8908   15.3663   23.6322 C    0  0  0  0  0  0  0  0  0  0  0  0
    9.4116   15.2283   24.0873 C    0  0  0  0  0  0  0  0  0  0  0  0
    8.6824   14.8871   21.7312 C    0  0  0  0  0  0  0  0  0  0  0  0
    8.5132   14.4488   23.1604 N    0  0  0  0  0  0  0  0  0  0  0  0
    7.4813   13.6102   23.5610 C    0  0  0  0  0  0  0  0  0  0  0  0
    6.6831   13.1945   22.7276 O    0  0  0  0  0  0  0  0  0  0  0  0
    7.1631   13.5560   25.0624 C    0  0  0  0  0  0  0  0  0  0  0  0
    6.5771   12.1771   25.2961 C    0  0  0  0  0  0  0  0  0  0  0  0
    8.0403   12.4095   25.5824 C    0  0  0  0  0  0  0  0  0  0  0  0
    9.1542   11.5925   24.8893 C    0  0  0  0  0  0  0  0  0  0  0  0
    8.6961    9.8318   24.8223 S    0  0  0  0  0  0  0  0  0  0  0  0
   10.0773    9.1147   23.8969 C    0  0  0  0  0  0  0  0  0  0  0  0
   10.7561   14.8580   17.8921 H    0  0  0  0  0  0  0  0  0  0  0  0
   10.9718   13.6787   19.1571 H    0  0  0  0  0  0  0  0  0  0  0  0
   10.5721   13.9829   21.2882 H    0  0  0  0  0  0  0  0  0  0  0  0
   12.0451   15.8905   21.8655 H    0  0  0  0  0  0  0  0  0  0  0  0
   10.6524   16.9308   22.1305 H    0  0  0  0  0  0  0  0  0  0  0  0
   11.3871   14.3946   23.7176 H    0  0  0  0  0  0  0  0  0  0  0  0
   11.4182   16.0448   24.3086 H    0  0  0  0  0  0  0  0  0  0  0  0
    9.4570   14.7952   25.0843 H    0  0  0  0  0  0  0  0  0  0  0  0
    8.9837   16.2253   24.2268 H    0  0  0  0  0  0  0  0  0  0  0  0
    8.1748   14.2095   21.0375 H    0  0  0  0  0  0  0  0  0  0  0  0
    8.1753   15.8534   21.6243 H    0  0  0  0  0  0  0  0  0  0  0  0
    6.8902   14.4041   25.6875 H    0  0  0  0  0  0  0  0  0  0  0  0
    5.9313   12.0619   26.1615 H    0  0  0  0  0  0  0  0  0  0  0  0
    6.3015   11.5031   24.4868 H    0  0  0  0  0  0  0  0  0  0  0  0
    8.2856   12.4884   26.6388 H    0  0  0  0  0  0  0  0  0  0  0  0
    9.3974   11.9030   23.8736 H    0  0  0  0  0  0  0  0  0  0  0  0
   10.0832   11.6704   25.4646 H    0  0  0  0  0  0  0  0  0  0  0  0
   11.0146    9.2727   24.4316 H    0  0  0  0  0  0  0  0  0  0  0  0
   10.1469    9.5796   22.9113 H    0  0  0  0  0  0  0  0  0  0  0  0
    9.9070    8.0455   23.7705 H    0  0  0  0  0  0  0  0  0  0  0  0
  7  9  1  0  0  0  0
  6  7  1  0  0  0  0
  5  6  1  0  0  0  0
  4  5  1  0  0  0  0
  2  4  1  0  0  0  0
  1  2  2  0  0  0  0
  3  2  1  0  0  0  0
 18  3  1  0  0  0  0
 19  3  1  0  0  0  0
 20  4  1  0  0  0  0
 21  5  1  0  0  0  0
 22  5  1  0  0  0  0
 23  6  1  0  0  0  0
 24  6  1  0  0  0  0
 25  7  1  0  0  0  0
 26  7  1  0  0  0  0
  8  4  1  0  0  0  0
 27  8  1  0  0  0  0
 28  8  1  0  0  0  0
 10  9  1  0  0  0  0
 11 10  2  0  0  0  0
 12 10  1  0  0  0  0
 29 12  1  0  0  0  0
 13 12  1  0  0  0  0
 30 13  1  0  0  0  0
 31 13  1  0  0  0  0
 14 13  1  0  0  0  0
 15 14  1  0  0  0  0
 32 14  1  0  0  0  0
 33 15  1  0  0  0  0
 34 15  1  0  0  0  0
 16 15  1  0  0  0  0
 17 16  1  0  0  0  0
 35 17  1  0  0  0  0
 36 17  1  0  0  0  0
 37 17  1  0  0  0  0
  9  8  1  0  0  0  0
 14 12  1  0  0  0  0
M  END
>  <FittedScore>
-28.02

$$$$
