A71EV2A-x4736a_lowest-energy
  FITTED

 37 38     0  0  0  0  0  0  0999 V2000
    9.7016   16.5307   19.3714 O    0  0  0  0  0  0  0  0  0  0  0  0
   10.2477   15.5048   19.7430 C    0  0  0  0  0  0  0  0  0  0  0  0
   10.7655   14.6499   18.8466 N    0  0  0  0  0  0  0  0  0  0  0  0
   10.1847   14.9850   21.1773 C    0  0  0  0  0  0  0  0  0  0  0  0
   11.0336   15.8556   22.1453 C    0  0  0  0  0  0  0  0  0  0  0  0
   10.9090   15.3042   23.5811 C    0  0  0  0  0  0  0  0  0  0  0  0
    9.4238   15.1935   24.0189 C    0  0  0  0  0  0  0  0  0  0  0  0
    8.7094   14.8427   21.6583 C    0  0  0  0  0  0  0  0  0  0  0  0
    8.5246   14.4211   23.0866 N    0  0  0  0  0  0  0  0  0  0  0  0
    7.4908   13.5881   23.4773 C    0  0  0  0  0  0  0  0  0  0  0  0
    6.6877   13.1908   22.6431 O    0  0  0  0  0  0  0  0  0  0  0  0
    7.1811   13.4963   24.9791 C    0  0  0  0  0  0  0  0  0  0  0  0
    6.5952   12.1121   25.1785 C    0  0  0  0  0  0  0  0  0  0  0  0
    8.0606   12.3303   25.4474 C    0  0  0  0  0  0  0  0  0  0  0  0
    9.1594   11.5266   24.7177 C    0  0  0  0  0  0  0  0  0  0  0  0
    8.7575    9.7540   24.7585 S    0  0  0  0  0  0  0  0  0  0  0  0
   10.2209    9.0154   23.9845 C    0  0  0  0  0  0  0  0  0  0  0  0
   10.7912   14.9253   17.8741 H    0  0  0  0  0  0  0  0  0  0  0  0
   10.9839   13.6897   19.1115 H    0  0  0  0  0  0  0  0  0  0  0  0
   10.6147   13.9739   21.2122 H    0  0  0  0  0  0  0  0  0  0  0  0
   12.0824   15.8432   21.8335 H    0  0  0  0  0  0  0  0  0  0  0  0
   10.7043   16.8996   22.1144 H    0  0  0  0  0  0  0  0  0  0  0  0
   11.3861   14.3200   23.6469 H    0  0  0  0  0  0  0  0  0  0  0  0
   11.4438   15.9630   24.2709 H    0  0  0  0  0  0  0  0  0  0  0  0
    9.4543   14.7658   25.0187 H    0  0  0  0  0  0  0  0  0  0  0  0
    9.0058   16.1956   24.1378 H    0  0  0  0  0  0  0  0  0  0  0  0
    8.2458   14.1322   20.9660 H    0  0  0  0  0  0  0  0  0  0  0  0
    8.1695   15.7831   21.5207 H    0  0  0  0  0  0  0  0  0  0  0  0
    6.9183   14.3224   25.6359 H    0  0  0  0  0  0  0  0  0  0  0  0
    5.9572   11.9758   26.0468 H    0  0  0  0  0  0  0  0  0  0  0  0
    6.3130   11.4540   24.3600 H    0  0  0  0  0  0  0  0  0  0  0  0
    8.3144   12.3676   26.5034 H    0  0  0  0  0  0  0  0  0  0  0  0
    9.3300   11.7851   23.6735 H    0  0  0  0  0  0  0  0  0  0  0  0
   10.1129   11.6551   25.2315 H    0  0  0  0  0  0  0  0  0  0  0  0
   10.1089    7.9281   23.9416 H    0  0  0  0  0  0  0  0  0  0  0  0
   11.1126    9.2634   24.5623 H    0  0  0  0  0  0  0  0  0  0  0  0
   10.3392    9.4036   22.9706 H    0  0  0  0  0  0  0  0  0  0  0  0
  7  9  1  0  0  0  0
  6  7  1  0  0  0  0
  5  6  1  0  0  0  0
  4  5  1  0  0  0  0
  2  4  1  0  0  0  0
  1  2  2  0  0  0  0
  3  2  1  0  0  0  0
 18  3  1  0  0  0  0
 19  3  1  0  0  0  0
 20  4  1  0  0  0  0
 21  5  1  0  0  0  0
 22  5  1  0  0  0  0
 23  6  1  0  0  0  0
 24  6  1  0  0  0  0
 25  7  1  0  0  0  0
 26  7  1  0  0  0  0
  8  4  1  0  0  0  0
 27  8  1  0  0  0  0
 28  8  1  0  0  0  0
 10  9  1  0  0  0  0
 11 10  2  0  0  0  0
 12 10  1  0  0  0  0
 29 12  1  0  0  0  0
 13 12  1  0  0  0  0
 30 13  1  0  0  0  0
 31 13  1  0  0  0  0
 14 13  1  0  0  0  0
 15 14  1  0  0  0  0
 32 14  1  0  0  0  0
 33 15  1  0  0  0  0
 34 15  1  0  0  0  0
 16 15  1  0  0  0  0
 17 16  1  0  0  0  0
 35 17  1  0  0  0  0
 36 17  1  0  0  0  0
 37 17  1  0  0  0  0
  9  8  1  0  0  0  0
 14 12  1  0  0  0  0
M  END
>  <FittedScore>
-28.20

$$$$
