A71EV2A-x3986a_lowest-energy
  FITTED

 47 49     0  0  0  0  0  0  0999 V2000
    6.8116   13.1316   22.6355 O    0  0  0  0  0  0  0  0  0  0  0  0
    7.5657   13.6679   23.4329 C    0  0  0  0  0  0  0  0  0  0  0  0
    8.4220   14.6826   23.0272 N    0  0  0  0  0  0  0  0  0  0  0  0
    9.2533   15.5754   23.9138 C    0  0  0  0  0  0  0  0  0  0  0  0
   10.7427   15.7126   23.4831 C    0  0  0  0  0  0  0  0  0  0  0  0
   10.8677   16.1630   22.0058 C    0  0  0  0  0  0  0  0  0  0  0  0
    8.5569   15.1213   21.5856 C    0  0  0  0  0  0  0  0  0  0  0  0
   10.0376   15.2187   21.0926 C    0  0  0  0  0  0  0  0  0  0  0  0
   10.1531   15.6322   19.6206 C    0  0  0  0  0  0  0  0  0  0  0  0
    9.7801   16.6951   19.1562 O    0  0  0  0  0  0  0  0  0  0  0  0
   10.6373   14.6881   18.7983 N    0  0  0  0  0  0  0  0  0  0  0  0
    7.5955   13.1066   24.8738 C    0  0  0  0  0  0  0  0  0  0  0  0
    8.6272   11.9776   24.9403 C    0  0  0  0  0  0  0  0  0  0  0  0
    9.9470   12.2643   25.3451 C    0  0  0  0  0  0  0  0  0  0  0  0
   10.9463   11.2944   25.2442 C    0  0  0  0  0  0  0  0  0  0  0  0
   10.6365   10.0135   24.7611 C    0  0  0  0  0  0  0  0  0  0  0  0
    9.3287    9.7084   24.3647 C    0  0  0  0  0  0  0  0  0  0  0  0
    8.3296   10.6823   24.4580 C    0  0  0  0  0  0  0  0  0  0  0  0
    5.9522   12.5938   25.5147 S    0  0  0  0  0  0  0  0  0  0  0  0
    5.0371   14.1118   25.4130 C    0  0  0  0  0  0  0  0  0  0  0  0
    4.0995   14.2969   24.3810 C    0  0  0  0  0  0  0  0  0  0  0  0
    3.3897   15.5046   24.2846 C    0  0  0  0  0  0  0  0  0  0  0  0
    3.6130   16.5264   25.2221 C    0  0  0  0  0  0  0  0  0  0  0  0
    4.5481   16.3420   26.2542 C    0  0  0  0  0  0  0  0  0  0  0  0
    5.2583   15.1339   26.3524 C    0  0  0  0  0  0  0  0  0  0  0  0
    8.7897   16.5676   23.9340 H    0  0  0  0  0  0  0  0  0  0  0  0
    9.2750   15.2731   24.9538 H    0  0  0  0  0  0  0  0  0  0  0  0
   11.2483   16.4328   24.1320 H    0  0  0  0  0  0  0  0  0  0  0  0
   11.2568   14.7529   23.6164 H    0  0  0  0  0  0  0  0  0  0  0  0
   10.5174   17.1956   21.9038 H    0  0  0  0  0  0  0  0  0  0  0  0
   11.9195   16.1475   21.7038 H    0  0  0  0  0  0  0  0  0  0  0  0
    8.0726   16.0963   21.4661 H    0  0  0  0  0  0  0  0  0  0  0  0
    8.0247   14.4547   20.9034 H    0  0  0  0  0  0  0  0  0  0  0  0
   10.4591   14.2114   21.2195 H    0  0  0  0  0  0  0  0  0  0  0  0
   10.8336   13.7507   19.1399 H    0  0  0  0  0  0  0  0  0  0  0  0
   10.6961   14.8618   17.8032 H    0  0  0  0  0  0  0  0  0  0  0  0
    7.8495   13.8680   25.6067 H    0  0  0  0  0  0  0  0  0  0  0  0
   10.2163   13.2413   25.7361 H    0  0  0  0  0  0  0  0  0  0  0  0
   11.9622   11.5380   25.5424 H    0  0  0  0  0  0  0  0  0  0  0  0
   11.4207    9.2659   24.6784 H    0  0  0  0  0  0  0  0  0  0  0  0
    9.0914    8.7188   23.9808 H    0  0  0  0  0  0  0  0  0  0  0  0
    7.3239   10.4328   24.1238 H    0  0  0  0  0  0  0  0  0  0  0  0
    3.9248   13.5078   23.6512 H    0  0  0  0  0  0  0  0  0  0  0  0
    2.6704   15.6464   23.4819 H    0  0  0  0  0  0  0  0  0  0  0  0
    3.0649   17.4620   25.1452 H    0  0  0  0  0  0  0  0  0  0  0  0
    4.7258   17.1354   26.9765 H    0  0  0  0  0  0  0  0  0  0  0  0
    5.9823   14.9995   27.1533 H    0  0  0  0  0  0  0  0  0  0  0  0
  2  1  2  0  0  0  0
  3  2  1  0  0  0  0
  4  3  1  0  0  0  0
 26  4  1  0  0  0  0
 27  4  1  0  0  0  0
  5  4  1  0  0  0  0
 28  5  1  0  0  0  0
 29  5  1  0  0  0  0
  6  5  1  0  0  0  0
 30  6  1  0  0  0  0
 31  6  1  0  0  0  0
  7  3  1  0  0  0  0
 32  7  1  0  0  0  0
 33  7  1  0  0  0  0
  8  6  1  0  0  0  0
  9  8  1  0  0  0  0
 34  8  1  0  0  0  0
 10  9  2  0  0  0  0
 11  9  1  0  0  0  0
 35 11  1  0  0  0  0
 36 11  1  0  0  0  0
 12  2  1  0  0  0  0
 19 12  1  0  0  0  0
 37 12  1  0  0  0  0
 13 12  1  0  0  0  0
 18 13  2  0  0  0  0
 14 13  1  0  0  0  0
 38 14  1  0  0  0  0
 15 14  2  0  0  0  0
 39 15  1  0  0  0  0
 16 15  1  0  0  0  0
 40 16  1  0  0  0  0
 17 16  2  0  0  0  0
 41 17  1  0  0  0  0
 42 18  1  0  0  0  0
 20 19  1  0  0  0  0
 25 20  2  0  0  0  0
 21 20  1  0  0  0  0
 43 21  1  0  0  0  0
 22 21  2  0  0  0  0
 44 22  1  0  0  0  0
 23 22  1  0  0  0  0
 45 23  1  0  0  0  0
 24 23  2  0  0  0  0
 46 24  1  0  0  0  0
 47 25  1  0  0  0  0
  8  7  1  0  0  0  0
 18 17  1  0  0  0  0
 25 24  1  0  0  0  0
M  END
>  <FittedScore>
-31.45

$$$$
