A71EV2A-x7095a_lowest-energy
  FITTED

 58 61     0  0  0  0  0  0  0999 V2000
    9.6800    8.7404   23.1586 C    0  0  0  0  0  0  0  0  0  0  0  0
    9.5999   10.4399   23.8163 S    0  0  0  0  0  0  0  0  0  0  0  0
    8.1809   10.4830   24.9080 C    0  0  0  0  0  0  0  0  0  0  0  0
    7.5703    9.3013   25.1991 N    0  0  0  0  0  0  0  0  0  0  0  0
    6.4775    9.3162   26.0006 C    0  0  0  0  0  0  0  0  0  0  0  0
    5.9273   10.4373   26.5231 N    0  0  0  0  0  0  0  0  0  0  0  0
    6.4983   11.6415   26.2316 C    0  0  0  0  0  0  0  0  0  0  0  0
    5.8700   12.7689   26.7278 N    0  0  0  0  0  0  0  0  0  0  0  0
    5.2495   13.8687   25.9167 C    0  0  0  0  0  0  0  0  0  0  0  0
    3.9252   14.0202   26.7265 C    0  0  0  0  0  0  0  0  0  0  0  0
    3.0074   13.2061   25.8860 O    0  0  0  0  0  0  0  0  0  0  0  0
    1.7249   13.7164   25.8690 C    0  0  0  0  0  0  0  0  0  0  0  0
    1.4072   14.7316   24.9485 C    0  0  0  0  0  0  0  0  0  0  0  0
    0.1341   15.3189   24.9699 C    0  0  0  0  0  0  0  0  0  0  0  0
   -0.8143   14.9020   25.9149 C    0  0  0  0  0  0  0  0  0  0  0  0
   -0.5032   13.8795   26.8241 C    0  0  0  0  0  0  0  0  0  0  0  0
    0.7555   13.2590   26.7866 C    0  0  0  0  0  0  0  0  0  0  0  0
    1.0665   11.9550   27.8874 CL   0  0  0  0  0  0  0  0  0  0  0  0
    4.6130   12.8839   27.5458 C    0  0  0  0  0  0  0  0  0  0  0  0
    7.6850   11.7061   25.4404 C    0  0  0  0  0  0  0  0  0  0  0  0
    8.4194   13.0261   25.1490 C    0  0  0  0  0  0  0  0  0  0  0  0
    8.1863   13.5794   23.7338 C    0  0  0  0  0  0  0  0  0  0  0  0
    7.3437   13.0620   23.0158 O    0  0  0  0  0  0  0  0  0  0  0  0
    9.0209   14.5773   23.2701 N    0  0  0  0  0  0  0  0  0  0  0  0
   10.1097   15.2745   24.0468 C    0  0  0  0  0  0  0  0  0  0  0  0
   11.5150   15.0706   23.4185 C    0  0  0  0  0  0  0  0  0  0  0  0
   11.5324   15.5580   21.9489 C    0  0  0  0  0  0  0  0  0  0  0  0
   10.3778   14.8938   21.1438 C    0  0  0  0  0  0  0  0  0  0  0  0
   10.3531   15.4228   19.7208 C    0  0  0  0  0  0  0  0  0  0  0  0
   10.9616   14.6398   18.8112 N    0  0  0  0  0  0  0  0  0  0  0  0
    9.7737   16.4367   19.3810 O    0  0  0  0  0  0  0  0  0  0  0  0
    9.0015   15.0650   21.8584 C    0  0  0  0  0  0  0  0  0  0  0  0
    8.7340    8.4643   22.6848 H    0  0  0  0  0  0  0  0  0  0  0  0
    9.9065    8.0329   23.9574 H    0  0  0  0  0  0  0  0  0  0  0  0
   10.4678    8.6886   22.4026 H    0  0  0  0  0  0  0  0  0  0  0  0
    6.0032    8.3663   26.2366 H    0  0  0  0  0  0  0  0  0  0  0  0
    5.1428   13.6119   24.8529 H    0  0  0  0  0  0  0  0  0  0  0  0
    5.8559   14.7796   25.9310 H    0  0  0  0  0  0  0  0  0  0  0  0
    3.4757   14.9415   27.1121 H    0  0  0  0  0  0  0  0  0  0  0  0
    2.1510   15.0714   24.2287 H    0  0  0  0  0  0  0  0  0  0  0  0
   -0.1154   16.1096   24.2647 H    0  0  0  0  0  0  0  0  0  0  0  0
   -1.7967   15.3653   25.9373 H    0  0  0  0  0  0  0  0  0  0  0  0
   -1.2565   13.5555   27.5397 H    0  0  0  0  0  0  0  0  0  0  0  0
    4.0451   11.9521   27.6644 H    0  0  0  0  0  0  0  0  0  0  0  0
    4.8391   13.1958   28.5700 H    0  0  0  0  0  0  0  0  0  0  0  0
    8.1684   13.7949   25.8805 H    0  0  0  0  0  0  0  0  0  0  0  0
    9.4821   12.8450   25.3196 H    0  0  0  0  0  0  0  0  0  0  0  0
   10.1742   14.9828   25.0929 H    0  0  0  0  0  0  0  0  0  0  0  0
    9.8844   16.3458   24.0874 H    0  0  0  0  0  0  0  0  0  0  0  0
   11.7989   14.0141   23.4663 H    0  0  0  0  0  0  0  0  0  0  0  0
   12.2597   15.6265   23.9951 H    0  0  0  0  0  0  0  0  0  0  0  0
   12.4976   15.3186   21.4961 H    0  0  0  0  0  0  0  0  0  0  0  0
   11.4265   16.6467   21.9257 H    0  0  0  0  0  0  0  0  0  0  0  0
   10.5793   13.8140   21.1203 H    0  0  0  0  0  0  0  0  0  0  0  0
   11.2874   13.7135   19.0863 H    0  0  0  0  0  0  0  0  0  0  0  0
   10.9130   14.8956   17.8333 H    0  0  0  0  0  0  0  0  0  0  0  0
    8.2522   14.5673   21.2387 H    0  0  0  0  0  0  0  0  0  0  0  0
    8.7075   16.1197   21.8654 H    0  0  0  0  0  0  0  0  0  0  0  0
 21 22  1  0  0  0  0
 20 21  1  0  0  0  0
  7 20  2  0  0  0  0
  6  7  1  0  0  0  0
  5  6  2  0  0  0  0
  4  5  1  0  0  0  0
  3  4  2  0  0  0  0
  2  3  1  0  0  0  0
  1  2  1  0  0  0  0
 33  1  1  0  0  0  0
 34  1  1  0  0  0  0
 35  1  1  0  0  0  0
 36  5  1  0  0  0  0
  8  7  1  0  0  0  0
  9  8  1  0  0  0  0
 10  9  1  0  0  0  0
 37  9  1  0  0  0  0
 38  9  1  0  0  0  0
 11 10  1  0  0  0  0
 19 10  1  0  0  0  0
 39 10  1  0  0  0  0
 12 11  1  0  0  0  0
 13 12  2  0  0  0  0
 14 13  1  0  0  0  0
 40 13  1  0  0  0  0
 15 14  2  0  0  0  0
 41 14  1  0  0  0  0
 16 15  1  0  0  0  0
 42 15  1  0  0  0  0
 17 16  2  0  0  0  0
 43 16  1  0  0  0  0
 18 17  1  0  0  0  0
 44 19  1  0  0  0  0
 45 19  1  0  0  0  0
 46 21  1  0  0  0  0
 47 21  1  0  0  0  0
 23 22  2  0  0  0  0
 24 22  1  0  0  0  0
 25 24  1  0  0  0  0
 26 25  1  0  0  0  0
 48 25  1  0  0  0  0
 49 25  1  0  0  0  0
 27 26  1  0  0  0  0
 50 26  1  0  0  0  0
 51 26  1  0  0  0  0
 28 27  1  0  0  0  0
 52 27  1  0  0  0  0
 53 27  1  0  0  0  0
 29 28  1  0  0  0  0
 32 28  1  0  0  0  0
 54 28  1  0  0  0  0
 30 29  1  0  0  0  0
 31 29  2  0  0  0  0
 55 30  1  0  0  0  0
 56 30  1  0  0  0  0
 57 32  1  0  0  0  0
 58 32  1  0  0  0  0
 17 12  1  0  0  0  0
 19  8  1  0  0  0  0
 20  3  1  0  0  0  0
 32 24  1  0  0  0  0
M  END
>  <FittedScore>
-34.24

$$$$
