A71EV2A-x7095a_best-RMSD
  FITTED

 58 61     0  0  0  0  0  0  0999 V2000
    9.7870    8.8267   23.2058 C    0  0  0  0  0  0  0  0  0  0  0  0
    9.5820   10.5304   23.8138 S    0  0  0  0  0  0  0  0  0  0  0  0
    8.1685   10.5053   24.9167 C    0  0  0  0  0  0  0  0  0  0  0  0
    7.6102    9.2942   25.1852 N    0  0  0  0  0  0  0  0  0  0  0  0
    6.5284    9.2498   25.9990 C    0  0  0  0  0  0  0  0  0  0  0  0
    5.9420   10.3390   26.5501 N    0  0  0  0  0  0  0  0  0  0  0  0
    6.4531   11.5663   26.2772 C    0  0  0  0  0  0  0  0  0  0  0  0
    5.7841   12.6520   26.8164 N    0  0  0  0  0  0  0  0  0  0  0  0
    5.0326   13.7000   26.0556 C    0  0  0  0  0  0  0  0  0  0  0  0
    3.7834   13.7976   26.9938 C    0  0  0  0  0  0  0  0  0  0  0  0
    2.8164   12.9188   26.2745 O    0  0  0  0  0  0  0  0  0  0  0  0
    1.5197   13.4055   26.3238 C    0  0  0  0  0  0  0  0  0  0  0  0
    0.8127   13.3371   27.5374 C    0  0  0  0  0  0  0  0  0  0  0  0
   -0.4583   13.9204   27.6451 C    0  0  0  0  0  0  0  0  0  0  0  0
   -1.0299   14.5636   26.5365 C    0  0  0  0  0  0  0  0  0  0  0  0
   -0.3512   14.5931   25.3095 C    0  0  0  0  0  0  0  0  0  0  0  0
    0.9167   13.9985   25.1938 C    0  0  0  0  0  0  0  0  0  0  0  0
    1.7095   14.0528   23.6569 CL   0  0  0  0  0  0  0  0  0  0  0  0
    4.6058   12.7057   27.7503 C    0  0  0  0  0  0  0  0  0  0  0  0
    7.6234   11.6970   25.4728 C    0  0  0  0  0  0  0  0  0  0  0  0
    8.2827   13.0588   25.1903 C    0  0  0  0  0  0  0  0  0  0  0  0
    8.0291   13.6086   23.7751 C    0  0  0  0  0  0  0  0  0  0  0  0
    7.1933   13.0733   23.0634 O    0  0  0  0  0  0  0  0  0  0  0  0
    8.8527   14.6030   23.2900 N    0  0  0  0  0  0  0  0  0  0  0  0
    9.8934   15.3531   24.0708 C    0  0  0  0  0  0  0  0  0  0  0  0
   11.3254   15.1424   23.5153 C    0  0  0  0  0  0  0  0  0  0  0  0
   11.4072   15.5668   22.0267 C    0  0  0  0  0  0  0  0  0  0  0  0
   10.2914   14.8731   21.1850 C    0  0  0  0  0  0  0  0  0  0  0  0
   10.3027   15.3834   19.7446 C    0  0  0  0  0  0  0  0  0  0  0  0
   10.9358   14.6077   18.8456 N    0  0  0  0  0  0  0  0  0  0  0  0
    9.7108   16.3809   19.3798 O    0  0  0  0  0  0  0  0  0  0  0  0
    8.8822   15.0238   21.8523 C    0  0  0  0  0  0  0  0  0  0  0  0
    8.8815    8.4815   22.7000 H    0  0  0  0  0  0  0  0  0  0  0  0
   10.0207    8.1631   24.0423 H    0  0  0  0  0  0  0  0  0  0  0  0
   10.6178    8.8124   22.4959 H    0  0  0  0  0  0  0  0  0  0  0  0
    6.0968    8.2750   26.2214 H    0  0  0  0  0  0  0  0  0  0  0  0
    4.8334   13.4167   25.0113 H    0  0  0  0  0  0  0  0  0  0  0  0
    5.5972   14.6368   26.0027 H    0  0  0  0  0  0  0  0  0  0  0  0
    3.3192   14.7023   27.4097 H    0  0  0  0  0  0  0  0  0  0  0  0
    1.2576   12.8455   28.3975 H    0  0  0  0  0  0  0  0  0  0  0  0
   -1.0007   13.8805   28.5858 H    0  0  0  0  0  0  0  0  0  0  0  0
   -2.0078   15.0243   26.6246 H    0  0  0  0  0  0  0  0  0  0  0  0
   -0.8125   15.0799   24.4482 H    0  0  0  0  0  0  0  0  0  0  0  0
    4.0899   11.7510   27.9311 H    0  0  0  0  0  0  0  0  0  0  0  0
    4.9214   13.0397   28.7435 H    0  0  0  0  0  0  0  0  0  0  0  0
    9.3544   12.9319   25.3652 H    0  0  0  0  0  0  0  0  0  0  0  0
    7.9810   13.8129   25.9213 H    0  0  0  0  0  0  0  0  0  0  0  0
    9.9060   15.1277   25.1344 H    0  0  0  0  0  0  0  0  0  0  0  0
    9.6477   16.4199   24.0390 H    0  0  0  0  0  0  0  0  0  0  0  0
   11.6159   14.0936   23.6220 H    0  0  0  0  0  0  0  0  0  0  0  0
   12.0310   15.7321   24.1039 H    0  0  0  0  0  0  0  0  0  0  0  0
   12.3896   15.3041   21.6284 H    0  0  0  0  0  0  0  0  0  0  0  0
   11.3103   16.6534   21.9564 H    0  0  0  0  0  0  0  0  0  0  0  0
   10.5133   13.7980   21.1752 H    0  0  0  0  0  0  0  0  0  0  0  0
   11.2772   13.6922   19.1321 H    0  0  0  0  0  0  0  0  0  0  0  0
   10.8654   14.8309   17.8568 H    0  0  0  0  0  0  0  0  0  0  0  0
    8.1632   14.4767   21.2372 H    0  0  0  0  0  0  0  0  0  0  0  0
    8.5624   16.0693   21.7993 H    0  0  0  0  0  0  0  0  0  0  0  0
 21 22  1  0  0  0  0
 20 21  1  0  0  0  0
  7 20  2  0  0  0  0
  6  7  1  0  0  0  0
  5  6  2  0  0  0  0
  4  5  1  0  0  0  0
  3  4  2  0  0  0  0
  2  3  1  0  0  0  0
  1  2  1  0  0  0  0
 33  1  1  0  0  0  0
 34  1  1  0  0  0  0
 35  1  1  0  0  0  0
 36  5  1  0  0  0  0
  8  7  1  0  0  0  0
  9  8  1  0  0  0  0
 10  9  1  0  0  0  0
 37  9  1  0  0  0  0
 38  9  1  0  0  0  0
 11 10  1  0  0  0  0
 19 10  1  0  0  0  0
 39 10  1  0  0  0  0
 12 11  1  0  0  0  0
 13 12  2  0  0  0  0
 14 13  1  0  0  0  0
 40 13  1  0  0  0  0
 15 14  2  0  0  0  0
 41 14  1  0  0  0  0
 16 15  1  0  0  0  0
 42 15  1  0  0  0  0
 17 16  2  0  0  0  0
 43 16  1  0  0  0  0
 18 17  1  0  0  0  0
 44 19  1  0  0  0  0
 45 19  1  0  0  0  0
 46 21  1  0  0  0  0
 47 21  1  0  0  0  0
 23 22  2  0  0  0  0
 24 22  1  0  0  0  0
 25 24  1  0  0  0  0
 26 25  1  0  0  0  0
 48 25  1  0  0  0  0
 49 25  1  0  0  0  0
 27 26  1  0  0  0  0
 50 26  1  0  0  0  0
 51 26  1  0  0  0  0
 28 27  1  0  0  0  0
 52 27  1  0  0  0  0
 53 27  1  0  0  0  0
 29 28  1  0  0  0  0
 32 28  1  0  0  0  0
 54 28  1  0  0  0  0
 30 29  1  0  0  0  0
 31 29  2  0  0  0  0
 55 30  1  0  0  0  0
 56 30  1  0  0  0  0
 57 32  1  0  0  0  0
 58 32  1  0  0  0  0
 17 12  1  0  0  0  0
 19  8  1  0  0  0  0
 20  3  1  0  0  0  0
 32 24  1  0  0  0  0
M  END
>  <FittedScore>
-33.27

$$$$
