A71EV2A-x7247a_lowest-energy
  FITTED

 63 66     0  0  0  0  0  0  0999 V2000
    9.8056   16.5820   19.3655 O    0  0  0  0  0  0  0  0  0  0  0  0
   10.3162   15.5414   19.7357 C    0  0  0  0  0  0  0  0  0  0  0  0
   10.8822   14.7194   18.8310 N    0  0  0  0  0  0  0  0  0  0  0  0
   10.2595   15.0481   21.1844 C    0  0  0  0  0  0  0  0  0  0  0  0
   11.2418   15.8710   22.0737 C    0  0  0  0  0  0  0  0  0  0  0  0
   11.1030   15.4942   23.5721 C    0  0  0  0  0  0  0  0  0  0  0  0
    9.6213   15.5532   24.0314 C    0  0  0  0  0  0  0  0  0  0  0  0
    8.8004   15.0900   21.7536 C    0  0  0  0  0  0  0  0  0  0  0  0
    8.7134   14.6947   23.1968 N    0  0  0  0  0  0  0  0  0  0  0  0
    7.8720   13.7090   23.6613 C    0  0  0  0  0  0  0  0  0  0  0  0
    6.9766   13.2581   22.9654 O    0  0  0  0  0  0  0  0  0  0  0  0
    8.1054   13.1353   25.0686 C    0  0  0  0  0  0  0  0  0  0  0  0
    7.4501   11.7583   25.3119 C    0  0  0  0  0  0  0  0  0  0  0  0
    8.0528   10.5727   24.8073 C    0  0  0  0  0  0  0  0  0  0  0  0
    9.5371   10.6256   23.8108 S    0  0  0  0  0  0  0  0  0  0  0  0
    9.8614    8.8899   23.3446 C    0  0  0  0  0  0  0  0  0  0  0  0
    6.2165   11.5986   26.0121 C    0  0  0  0  0  0  0  0  0  0  0  0
    5.6490   10.3751   26.1629 N    0  0  0  0  0  0  0  0  0  0  0  0
    6.3081    9.2955   25.6953 C    0  0  0  0  0  0  0  0  0  0  0  0
    7.4872    9.3497   25.0290 N    0  0  0  0  0  0  0  0  0  0  0  0
    5.5091   12.6204   26.6074 N    0  0  0  0  0  0  0  0  0  0  0  0
    5.8264   13.1024   27.9640 C    0  0  0  0  0  0  0  0  0  0  0  0
    5.7955   14.6421   27.8160 C    0  0  0  0  0  0  0  0  0  0  0  0
    5.0051   14.9417   26.5213 C    0  0  0  0  0  0  0  0  0  0  0  0
    4.7182   13.5887   25.8465 C    0  0  0  0  0  0  0  0  0  0  0  0
    4.7948   12.6112   29.0281 C    0  0  0  0  0  0  0  0  0  0  0  0
    4.5601   11.1040   29.0991 C    0  0  0  0  0  0  0  0  0  0  0  0
    3.5220   10.3702   28.5682 N    0  0  0  0  0  0  0  0  0  0  0  0
    2.4874   10.8459   27.6311 C    0  0  0  0  0  0  0  0  0  0  0  0
    3.6445    9.0126   28.7070 N    0  0  0  0  0  0  0  0  0  0  0  0
    4.9081    8.9643   29.4824 C    0  0  0  0  0  0  0  0  0  0  0  0
    5.4269   10.2208   29.6989 C    0  0  0  0  0  0  0  0  0  0  0  0
   11.1387   13.7688   19.0972 H    0  0  0  0  0  0  0  0  0  0  0  0
   10.8378   14.9622   17.8464 H    0  0  0  0  0  0  0  0  0  0  0  0
   10.5879   14.0008   21.2233 H    0  0  0  0  0  0  0  0  0  0  0  0
   12.2707   15.6918   21.7534 H    0  0  0  0  0  0  0  0  0  0  0  0
   11.0500   16.9418   21.9561 H    0  0  0  0  0  0  0  0  0  0  0  0
   11.5085   14.4920   23.7413 H    0  0  0  0  0  0  0  0  0  0  0  0
   11.6975   16.1823   24.1772 H    0  0  0  0  0  0  0  0  0  0  0  0
    9.5848   15.3238   25.0970 H    0  0  0  0  0  0  0  0  0  0  0  0
    9.2679   16.5887   23.9734 H    0  0  0  0  0  0  0  0  0  0  0  0
    8.1828   14.4527   21.1166 H    0  0  0  0  0  0  0  0  0  0  0  0
    8.3827   16.0967   21.6527 H    0  0  0  0  0  0  0  0  0  0  0  0
    9.1765   13.0373   25.2578 H    0  0  0  0  0  0  0  0  0  0  0  0
    7.7791   13.8682   25.8012 H    0  0  0  0  0  0  0  0  0  0  0  0
   10.7511    8.8467   22.7153 H    0  0  0  0  0  0  0  0  0  0  0  0
    9.0134    8.4861   22.7861 H    0  0  0  0  0  0  0  0  0  0  0  0
   10.0345    8.2877   24.2389 H    0  0  0  0  0  0  0  0  0  0  0  0
    5.8600    8.3204   25.8646 H    0  0  0  0  0  0  0  0  0  0  0  0
    6.8322   12.7890   28.2715 H    0  0  0  0  0  0  0  0  0  0  0  0
    5.3458   15.1432   28.6773 H    0  0  0  0  0  0  0  0  0  0  0  0
    6.8161   15.0224   27.7234 H    0  0  0  0  0  0  0  0  0  0  0  0
    4.0686   15.4544   26.7537 H    0  0  0  0  0  0  0  0  0  0  0  0
    5.5884   15.5829   25.8545 H    0  0  0  0  0  0  0  0  0  0  0  0
    3.6542   13.3479   25.9053 H    0  0  0  0  0  0  0  0  0  0  0  0
    4.9871   13.6265   24.7911 H    0  0  0  0  0  0  0  0  0  0  0  0
    3.8405   13.1217   28.8883 H    0  0  0  0  0  0  0  0  0  0  0  0
    5.1384   12.9399   30.0128 H    0  0  0  0  0  0  0  0  0  0  0  0
    2.2411   11.9001   27.7624 H    0  0  0  0  0  0  0  0  0  0  0  0
    1.5506   10.2955   27.7457 H    0  0  0  0  0  0  0  0  0  0  0  0
    2.8035   10.7251   26.5916 H    0  0  0  0  0  0  0  0  0  0  0  0
    5.3461    8.0277   29.8189 H    0  0  0  0  0  0  0  0  0  0  0  0
    6.3472   10.4622   30.2252 H    0  0  0  0  0  0  0  0  0  0  0  0
 12 13  1  0  0  0  0
 10 12  1  0  0  0  0
  9 10  1  0  0  0  0
  7  9  1  0  0  0  0
  6  7  1  0  0  0  0
  5  6  1  0  0  0  0
  4  5  1  0  0  0  0
  2  4  1  0  0  0  0
  1  2  2  0  0  0  0
  3  2  1  0  0  0  0
 33  3  1  0  0  0  0
 34  3  1  0  0  0  0
 35  4  1  0  0  0  0
 36  5  1  0  0  0  0
 37  5  1  0  0  0  0
 38  6  1  0  0  0  0
 39  6  1  0  0  0  0
 40  7  1  0  0  0  0
 41  7  1  0  0  0  0
  8  4  1  0  0  0  0
 42  8  1  0  0  0  0
 43  8  1  0  0  0  0
 11 10  2  0  0  0  0
 44 12  1  0  0  0  0
 45 12  1  0  0  0  0
 14 13  1  0  0  0  0
 20 14  2  0  0  0  0
 15 14  1  0  0  0  0
 16 15  1  0  0  0  0
 46 16  1  0  0  0  0
 47 16  1  0  0  0  0
 48 16  1  0  0  0  0
 17 13  2  0  0  0  0
 18 17  1  0  0  0  0
 19 18  2  0  0  0  0
 49 19  1  0  0  0  0
 21 17  1  0  0  0  0
 25 21  1  0  0  0  0
 22 21  1  0  0  0  0
 26 22  1  0  0  0  0
 50 22  1  0  0  0  0
 23 22  1  0  0  0  0
 51 23  1  0  0  0  0
 52 23  1  0  0  0  0
 24 23  1  0  0  0  0
 53 24  1  0  0  0  0
 54 24  1  0  0  0  0
 55 25  1  0  0  0  0
 56 25  1  0  0  0  0
 57 26  1  0  0  0  0
 58 26  1  0  0  0  0
 27 26  1  0  0  0  0
 32 27  2  0  0  0  0
 28 27  1  0  0  0  0
 29 28  1  0  0  0  0
 59 29  1  0  0  0  0
 60 29  1  0  0  0  0
 61 29  1  0  0  0  0
 30 28  1  0  0  0  0
 31 30  2  0  0  0  0
 62 31  1  0  0  0  0
 63 32  1  0  0  0  0
  9  8  1  0  0  0  0
 20 19  1  0  0  0  0
 25 24  1  0  0  0  0
 32 31  1  0  0  0  0
M  END
>  <FittedScore>
-35.07

$$$$
