A71EV2A-x7247a_best-RMSD
  FITTED

 63 66     0  0  0  0  0  0  0999 V2000
    9.4585   16.4377   19.3747 O    0  0  0  0  0  0  0  0  0  0  0  0
   10.0685   15.4588   19.7404 C    0  0  0  0  0  0  0  0  0  0  0  0
   10.7345   14.7059   18.8453 N    0  0  0  0  0  0  0  0  0  0  0  0
   10.3140   15.0934   21.1968 C    0  0  0  0  0  0  0  0  0  0  0  0
   11.4578   15.9979   21.7438 C    0  0  0  0  0  0  0  0  0  0  0  0
   11.7282   15.6530   23.2217 C    0  0  0  0  0  0  0  0  0  0  0  0
   10.4314   15.7530   24.0603 C    0  0  0  0  0  0  0  0  0  0  0  0
    9.0440   15.1419   22.1163 C    0  0  0  0  0  0  0  0  0  0  0  0
    9.3936   14.8071   23.5453 N    0  0  0  0  0  0  0  0  0  0  0  0
    8.9684   13.7195   24.2786 C    0  0  0  0  0  0  0  0  0  0  0  0
    9.5636   13.3586   25.2834 O    0  0  0  0  0  0  0  0  0  0  0  0
    7.7008   12.9731   23.8498 C    0  0  0  0  0  0  0  0  0  0  0  0
    7.3080   11.8073   24.7863 C    0  0  0  0  0  0  0  0  0  0  0  0
    7.9658   10.5443   24.6630 C    0  0  0  0  0  0  0  0  0  0  0  0
    9.4521   10.3516   23.6703 S    0  0  0  0  0  0  0  0  0  0  0  0
    9.6657    8.5713   23.3890 C    0  0  0  0  0  0  0  0  0  0  0  0
    6.2854   11.9203   25.7796 C    0  0  0  0  0  0  0  0  0  0  0  0
    5.9008   10.8085   26.4805 N    0  0  0  0  0  0  0  0  0  0  0  0
    6.4858    9.6188   26.2066 C    0  0  0  0  0  0  0  0  0  0  0  0
    7.5075    9.4485   25.3285 N    0  0  0  0  0  0  0  0  0  0  0  0
    5.6440   13.1222   26.0995 N    0  0  0  0  0  0  0  0  0  0  0  0
    4.2470   13.2026   26.6036 C    0  0  0  0  0  0  0  0  0  0  0  0
    4.0075   14.6774   27.0038 C    0  0  0  0  0  0  0  0  0  0  0  0
    5.3907   15.3414   27.0163 C    0  0  0  0  0  0  0  0  0  0  0  0
    6.4074   14.2316   26.7043 C    0  0  0  0  0  0  0  0  0  0  0  0
    3.1807   12.6629   25.6032 C    0  0  0  0  0  0  0  0  0  0  0  0
    1.8303   12.3215   26.2320 C    0  0  0  0  0  0  0  0  0  0  0  0
    1.5472   11.3399   27.1536 N    0  0  0  0  0  0  0  0  0  0  0  0
    2.4780   10.3237   27.6791 C    0  0  0  0  0  0  0  0  0  0  0  0
    0.2436   11.2765   27.5665 N    0  0  0  0  0  0  0  0  0  0  0  0
   -0.3190   12.3630   26.7329 C    0  0  0  0  0  0  0  0  0  0  0  0
    0.6480   12.9682   25.9579 C    0  0  0  0  0  0  0  0  0  0  0  0
   10.8094   15.0170   17.8812 H    0  0  0  0  0  0  0  0  0  0  0  0
   11.1408   13.8169   19.1376 H    0  0  0  0  0  0  0  0  0  0  0  0
   10.6675   14.0566   21.2505 H    0  0  0  0  0  0  0  0  0  0  0  0
   12.3742   15.8386   21.1709 H    0  0  0  0  0  0  0  0  0  0  0  0
   11.2109   17.0625   21.6508 H    0  0  0  0  0  0  0  0  0  0  0  0
   12.1628   14.6507   23.3003 H    0  0  0  0  0  0  0  0  0  0  0  0
   12.4726   16.3467   23.6260 H    0  0  0  0  0  0  0  0  0  0  0  0
   10.6805   15.5916   25.1122 H    0  0  0  0  0  0  0  0  0  0  0  0
   10.0434   16.7758   24.0208 H    0  0  0  0  0  0  0  0  0  0  0  0
    8.2911   14.4765   21.6940 H    0  0  0  0  0  0  0  0  0  0  0  0
    8.5817   16.1377   22.0902 H    0  0  0  0  0  0  0  0  0  0  0  0
    6.8781   13.6852   23.7494 H    0  0  0  0  0  0  0  0  0  0  0  0
    7.8283   12.5726   22.8418 H    0  0  0  0  0  0  0  0  0  0  0  0
    9.7867    8.0592   24.3443 H    0  0  0  0  0  0  0  0  0  0  0  0
   10.5550    8.3938   22.7820 H    0  0  0  0  0  0  0  0  0  0  0  0
    8.7912    8.1743   22.8690 H    0  0  0  0  0  0  0  0  0  0  0  0
    6.1257    8.7459   26.7416 H    0  0  0  0  0  0  0  0  0  0  0  0
    4.1800   12.6334   27.5345 H    0  0  0  0  0  0  0  0  0  0  0  0
    3.3458   15.2039   26.3103 H    0  0  0  0  0  0  0  0  0  0  0  0
    3.5434   14.7353   27.9940 H    0  0  0  0  0  0  0  0  0  0  0  0
    5.4378   16.1284   26.2564 H    0  0  0  0  0  0  0  0  0  0  0  0
    5.6001   15.8038   27.9849 H    0  0  0  0  0  0  0  0  0  0  0  0
    7.1691   14.6547   26.0569 H    0  0  0  0  0  0  0  0  0  0  0  0
    6.9171   13.9141   27.6184 H    0  0  0  0  0  0  0  0  0  0  0  0
    3.5442   11.7584   25.1092 H    0  0  0  0  0  0  0  0  0  0  0  0
    3.0413   13.3793   24.7885 H    0  0  0  0  0  0  0  0  0  0  0  0
    1.9679    9.4524   28.0964 H    0  0  0  0  0  0  0  0  0  0  0  0
    3.1014   10.7323   28.4779 H    0  0  0  0  0  0  0  0  0  0  0  0
    3.1403    9.9376   26.9023 H    0  0  0  0  0  0  0  0  0  0  0  0
   -1.3781   12.6142   26.7540 H    0  0  0  0  0  0  0  0  0  0  0  0
    0.4992   13.7927   25.2632 H    0  0  0  0  0  0  0  0  0  0  0  0
 12 13  1  0  0  0  0
 10 12  1  0  0  0  0
  9 10  1  0  0  0  0
  7  9  1  0  0  0  0
  6  7  1  0  0  0  0
  5  6  1  0  0  0  0
  4  5  1  0  0  0  0
  2  4  1  0  0  0  0
  1  2  2  0  0  0  0
  3  2  1  0  0  0  0
 33  3  1  0  0  0  0
 34  3  1  0  0  0  0
 35  4  1  0  0  0  0
 36  5  1  0  0  0  0
 37  5  1  0  0  0  0
 38  6  1  0  0  0  0
 39  6  1  0  0  0  0
 40  7  1  0  0  0  0
 41  7  1  0  0  0  0
  8  4  1  0  0  0  0
 42  8  1  0  0  0  0
 43  8  1  0  0  0  0
 11 10  2  0  0  0  0
 44 12  1  0  0  0  0
 45 12  1  0  0  0  0
 14 13  1  0  0  0  0
 20 14  2  0  0  0  0
 15 14  1  0  0  0  0
 16 15  1  0  0  0  0
 46 16  1  0  0  0  0
 47 16  1  0  0  0  0
 48 16  1  0  0  0  0
 17 13  2  0  0  0  0
 18 17  1  0  0  0  0
 19 18  2  0  0  0  0
 49 19  1  0  0  0  0
 21 17  1  0  0  0  0
 25 21  1  0  0  0  0
 22 21  1  0  0  0  0
 26 22  1  0  0  0  0
 50 22  1  0  0  0  0
 23 22  1  0  0  0  0
 51 23  1  0  0  0  0
 52 23  1  0  0  0  0
 24 23  1  0  0  0  0
 53 24  1  0  0  0  0
 54 24  1  0  0  0  0
 55 25  1  0  0  0  0
 56 25  1  0  0  0  0
 57 26  1  0  0  0  0
 58 26  1  0  0  0  0
 27 26  1  0  0  0  0
 32 27  2  0  0  0  0
 28 27  1  0  0  0  0
 29 28  1  0  0  0  0
 59 29  1  0  0  0  0
 60 29  1  0  0  0  0
 61 29  1  0  0  0  0
 30 28  1  0  0  0  0
 31 30  2  0  0  0  0
 62 31  1  0  0  0  0
 63 32  1  0  0  0  0
  9  8  1  0  0  0  0
 20 19  1  0  0  0  0
 25 24  1  0  0  0  0
 32 31  1  0  0  0  0
M  END
>  <FittedScore>
-29.89

$$$$
