A71EV2A-x7260a_lowest-energy
  FITTED

 51 53     0  0  0  0  0  0  0999 V2000
    9.5841    8.9459   23.3267 C    0  0  0  0  0  0  0  0  0  0  0  0
    9.3081   10.6983   23.7609 S    0  0  0  0  0  0  0  0  0  0  0  0
    7.7139   10.8189   24.5741 C    0  0  0  0  0  0  0  0  0  0  0  0
    7.0271    9.6825   25.0307 C    0  0  0  0  0  0  0  0  0  0  0  0
    5.7824    9.7973   25.6552 C    0  0  0  0  0  0  0  0  0  0  0  0
    5.1595   11.0510   25.8491 C    0  0  0  0  0  0  0  0  0  0  0  0
    3.8745   11.1244   26.4593 C    0  0  0  0  0  0  0  0  0  0  0  0
    3.3250   10.1308   27.2560 C    0  0  0  0  0  0  0  0  0  0  0  0
    2.0825   10.5540   27.6694 C    0  0  0  0  0  0  0  0  0  0  0  0
    1.1328    9.7523   28.5374 C    0  0  0  0  0  0  0  0  0  0  0  0
    1.7636   11.8729   27.0974 N    0  0  0  0  0  0  0  0  0  0  0  0
    2.9235   12.1353   26.4164 N    0  0  0  0  0  0  0  0  0  0  0  0
    2.8151   13.2356   25.4355 C    0  0  0  0  0  0  0  0  0  0  0  0
    5.8724   12.1923   25.4111 C    0  0  0  0  0  0  0  0  0  0  0  0
    7.1217   12.0837   24.7739 C    0  0  0  0  0  0  0  0  0  0  0  0
    7.7624   13.2496   24.3673 O    0  0  0  0  0  0  0  0  0  0  0  0
    7.7615   13.7199   23.0887 C    0  0  0  0  0  0  0  0  0  0  0  0
    6.9923   13.2718   22.2505 O    0  0  0  0  0  0  0  0  0  0  0  0
    8.7320   14.6417   22.7752 N    0  0  0  0  0  0  0  0  0  0  0  0
    9.6193   15.3577   23.7637 C    0  0  0  0  0  0  0  0  0  0  0  0
   11.1253   15.4346   23.3776 C    0  0  0  0  0  0  0  0  0  0  0  0
   11.3221   15.9808   21.9483 C    0  0  0  0  0  0  0  0  0  0  0  0
   10.4591   15.1491   20.9619 C    0  0  0  0  0  0  0  0  0  0  0  0
   10.6113   15.6722   19.5390 C    0  0  0  0  0  0  0  0  0  0  0  0
   10.9421   14.7472   18.6313 N    0  0  0  0  0  0  0  0  0  0  0  0
   10.1958   16.7527   19.1844 O    0  0  0  0  0  0  0  0  0  0  0  0
    8.9560   15.1132   21.3773 C    0  0  0  0  0  0  0  0  0  0  0  0
   10.5242    8.8582   22.7786 H    0  0  0  0  0  0  0  0  0  0  0  0
    8.7742    8.5773   22.6921 H    0  0  0  0  0  0  0  0  0  0  0  0
    9.6587    8.3344   24.2269 H    0  0  0  0  0  0  0  0  0  0  0  0
    7.4275    8.6847   24.9047 H    0  0  0  0  0  0  0  0  0  0  0  0
    5.3015    8.8676   25.9447 H    0  0  0  0  0  0  0  0  0  0  0  0
    3.7758    9.1826   27.5385 H    0  0  0  0  0  0  0  0  0  0  0  0
    0.3931    9.2518   27.9091 H    0  0  0  0  0  0  0  0  0  0  0  0
    0.6060   10.4048   29.2362 H    0  0  0  0  0  0  0  0  0  0  0  0
    1.6679    8.9901   29.1105 H    0  0  0  0  0  0  0  0  0  0  0  0
    1.7859   13.5541   25.2416 H    0  0  0  0  0  0  0  0  0  0  0  0
    3.2316   12.9626   24.4623 H    0  0  0  0  0  0  0  0  0  0  0  0
    3.3448   14.1250   25.7875 H    0  0  0  0  0  0  0  0  0  0  0  0
    5.4959   13.1948   25.5731 H    0  0  0  0  0  0  0  0  0  0  0  0
    9.5802   14.9007   24.7547 H    0  0  0  0  0  0  0  0  0  0  0  0
    9.2326   16.3766   23.8880 H    0  0  0  0  0  0  0  0  0  0  0  0
   11.5729   14.4406   23.4491 H    0  0  0  0  0  0  0  0  0  0  0  0
   11.6585   16.0747   24.0775 H    0  0  0  0  0  0  0  0  0  0  0  0
   12.3731   15.9087   21.6636 H    0  0  0  0  0  0  0  0  0  0  0  0
   11.0509   17.0397   21.9080 H    0  0  0  0  0  0  0  0  0  0  0  0
   10.8283   14.1074   21.0303 H    0  0  0  0  0  0  0  0  0  0  0  0
   10.9514   13.7646   18.8891 H    0  0  0  0  0  0  0  0  0  0  0  0
   11.0421   14.9951   17.6542 H    0  0  0  0  0  0  0  0  0  0  0  0
    8.4532   14.4768   20.6465 H    0  0  0  0  0  0  0  0  0  0  0  0
    8.4998   16.0991   21.2730 H    0  0  0  0  0  0  0  0  0  0  0  0
 14 15  2  0  0  0  0
  6 14  1  0  0  0  0
  5  6  2  0  0  0  0
  4  5  1  0  0  0  0
  3  4  2  0  0  0  0
  2  3  1  0  0  0  0
  1  2  1  0  0  0  0
 28  1  1  0  0  0  0
 29  1  1  0  0  0  0
 30  1  1  0  0  0  0
 31  4  1  0  0  0  0
 32  5  1  0  0  0  0
  7  6  1  0  0  0  0
  8  7  2  0  0  0  0
  9  8  1  0  0  0  0
 33  8  1  0  0  0  0
 10  9  1  0  0  0  0
 11  9  2  0  0  0  0
 34 10  1  0  0  0  0
 35 10  1  0  0  0  0
 36 10  1  0  0  0  0
 12 11  1  0  0  0  0
 13 12  1  0  0  0  0
 37 13  1  0  0  0  0
 38 13  1  0  0  0  0
 39 13  1  0  0  0  0
 40 14  1  0  0  0  0
 16 15  1  0  0  0  0
 17 16  1  0  0  0  0
 18 17  2  0  0  0  0
 19 17  1  0  0  0  0
 20 19  1  0  0  0  0
 21 20  1  0  0  0  0
 41 20  1  0  0  0  0
 42 20  1  0  0  0  0
 22 21  1  0  0  0  0
 43 21  1  0  0  0  0
 44 21  1  0  0  0  0
 23 22  1  0  0  0  0
 45 22  1  0  0  0  0
 46 22  1  0  0  0  0
 24 23  1  0  0  0  0
 27 23  1  0  0  0  0
 47 23  1  0  0  0  0
 25 24  1  0  0  0  0
 26 24  2  0  0  0  0
 48 25  1  0  0  0  0
 49 25  1  0  0  0  0
 50 27  1  0  0  0  0
 51 27  1  0  0  0  0
 12  7  1  0  0  0  0
 15  3  1  0  0  0  0
 27 19  1  0  0  0  0
M  END
>  <FittedScore>
-35.20

$$$$
