A71EV2A-x7260a_best-RMSD
  FITTED

 51 53     0  0  0  0  0  0  0999 V2000
    9.3274    8.6491   23.3683 C    0  0  0  0  0  0  0  0  0  0  0  0
    9.2916   10.4041   23.8491 S    0  0  0  0  0  0  0  0  0  0  0  0
    7.7498   10.6954   24.7059 C    0  0  0  0  0  0  0  0  0  0  0  0
    6.9529    9.6569   25.2200 C    0  0  0  0  0  0  0  0  0  0  0  0
    5.6920    9.9379   25.7714 C    0  0  0  0  0  0  0  0  0  0  0  0
    5.1959   11.2588   25.7998 C    0  0  0  0  0  0  0  0  0  0  0  0
    3.8810   11.5735   26.2016 C    0  0  0  0  0  0  0  0  0  0  0  0
    3.1625   12.6536   25.7139 C    0  0  0  0  0  0  0  0  0  0  0  0
    1.8972   12.5738   26.2428 C    0  0  0  0  0  0  0  0  0  0  0  0
    0.7502   13.4944   25.8835 C    0  0  0  0  0  0  0  0  0  0  0  0
    1.7886   11.4278   27.1567 N    0  0  0  0  0  0  0  0  0  0  0  0
    3.0445   10.8958   27.0595 N    0  0  0  0  0  0  0  0  0  0  0  0
    3.4694   10.0909   28.2265 C    0  0  0  0  0  0  0  0  0  0  0  0
    6.0420   12.2908   25.3644 C    0  0  0  0  0  0  0  0  0  0  0  0
    7.3047   12.0174   24.8487 C    0  0  0  0  0  0  0  0  0  0  0  0
    8.0830   13.0940   24.4858 O    0  0  0  0  0  0  0  0  0  0  0  0
    7.9573   13.7260   23.2937 C    0  0  0  0  0  0  0  0  0  0  0  0
    7.1608   13.3459   22.4427 O    0  0  0  0  0  0  0  0  0  0  0  0
    8.8293   14.7604   23.0960 N    0  0  0  0  0  0  0  0  0  0  0  0
    9.9292   15.1914   24.0304 C    0  0  0  0  0  0  0  0  0  0  0  0
   11.3437   14.9761   23.4259 C    0  0  0  0  0  0  0  0  0  0  0  0
   11.4687   15.5901   21.9987 C    0  0  0  0  0  0  0  0  0  0  0  0
   10.2755   15.1356   21.1010 C    0  0  0  0  0  0  0  0  0  0  0  0
   10.3629   15.6868   19.6877 C    0  0  0  0  0  0  0  0  0  0  0  0
   10.8624   14.8346   18.7678 N    0  0  0  0  0  0  0  0  0  0  0  0
    9.9368   16.7757   19.3613 O    0  0  0  0  0  0  0  0  0  0  0  0
    8.9293   15.4805   21.7944 C    0  0  0  0  0  0  0  0  0  0  0  0
   10.1760    8.5051   22.7073 H    0  0  0  0  0  0  0  0  0  0  0  0
    8.4144    8.3602   22.8426 H    0  0  0  0  0  0  0  0  0  0  0  0
    9.4521    8.0292   24.2559 H    0  0  0  0  0  0  0  0  0  0  0  0
    7.2852    8.6244   25.1881 H    0  0  0  0  0  0  0  0  0  0  0  0
    5.0913    9.1055   26.1108 H    0  0  0  0  0  0  0  0  0  0  0  0
    3.4898   13.3932   24.9891 H    0  0  0  0  0  0  0  0  0  0  0  0
    0.7866   14.3942   26.5008 H    0  0  0  0  0  0  0  0  0  0  0  0
   -0.2095   12.9981   26.0539 H    0  0  0  0  0  0  0  0  0  0  0  0
    0.7919   13.7890   24.8317 H    0  0  0  0  0  0  0  0  0  0  0  0
    3.2469    9.0286   28.0811 H    0  0  0  0  0  0  0  0  0  0  0  0
    2.9634   10.3932   29.1516 H    0  0  0  0  0  0  0  0  0  0  0  0
    4.5390   10.1814   28.4339 H    0  0  0  0  0  0  0  0  0  0  0  0
    5.7442   13.3329   25.4230 H    0  0  0  0  0  0  0  0  0  0  0  0
    9.9056   14.6678   24.9868 H    0  0  0  0  0  0  0  0  0  0  0  0
    9.7883   16.2467   24.2809 H    0  0  0  0  0  0  0  0  0  0  0  0
   11.5486   13.9005   23.3773 H    0  0  0  0  0  0  0  0  0  0  0  0
   12.0966   15.4159   24.0862 H    0  0  0  0  0  0  0  0  0  0  0  0
   12.4167   15.2754   21.5526 H    0  0  0  0  0  0  0  0  0  0  0  0
   11.5002   16.6789   22.0740 H    0  0  0  0  0  0  0  0  0  0  0  0
   10.3091   14.0380   21.0404 H    0  0  0  0  0  0  0  0  0  0  0  0
   11.0819   13.8750   19.0323 H    0  0  0  0  0  0  0  0  0  0  0  0
   10.8726   15.1112   17.7882 H    0  0  0  0  0  0  0  0  0  0  0  0
    8.1052   15.2565   21.1131 H    0  0  0  0  0  0  0  0  0  0  0  0
    8.8491   16.5559   21.9763 H    0  0  0  0  0  0  0  0  0  0  0  0
 14 15  2  0  0  0  0
  6 14  1  0  0  0  0
  5  6  2  0  0  0  0
  4  5  1  0  0  0  0
  3  4  2  0  0  0  0
  2  3  1  0  0  0  0
  1  2  1  0  0  0  0
 28  1  1  0  0  0  0
 29  1  1  0  0  0  0
 30  1  1  0  0  0  0
 31  4  1  0  0  0  0
 32  5  1  0  0  0  0
  7  6  1  0  0  0  0
  8  7  2  0  0  0  0
  9  8  1  0  0  0  0
 33  8  1  0  0  0  0
 10  9  1  0  0  0  0
 11  9  2  0  0  0  0
 34 10  1  0  0  0  0
 35 10  1  0  0  0  0
 36 10  1  0  0  0  0
 12 11  1  0  0  0  0
 13 12  1  0  0  0  0
 37 13  1  0  0  0  0
 38 13  1  0  0  0  0
 39 13  1  0  0  0  0
 40 14  1  0  0  0  0
 16 15  1  0  0  0  0
 17 16  1  0  0  0  0
 18 17  2  0  0  0  0
 19 17  1  0  0  0  0
 20 19  1  0  0  0  0
 21 20  1  0  0  0  0
 41 20  1  0  0  0  0
 42 20  1  0  0  0  0
 22 21  1  0  0  0  0
 43 21  1  0  0  0  0
 44 21  1  0  0  0  0
 23 22  1  0  0  0  0
 45 22  1  0  0  0  0
 46 22  1  0  0  0  0
 24 23  1  0  0  0  0
 27 23  1  0  0  0  0
 47 23  1  0  0  0  0
 25 24  1  0  0  0  0
 26 24  2  0  0  0  0
 48 25  1  0  0  0  0
 49 25  1  0  0  0  0
 50 27  1  0  0  0  0
 51 27  1  0  0  0  0
 12  7  1  0  0  0  0
 15  3  1  0  0  0  0
 27 19  1  0  0  0  0
M  END
>  <FittedScore>
-32.94

$$$$
