A71EV2A-x3663a_lowest-energy
  FITTED

 38 39     0  0  0  0  0  0  0999 V2000
    9.3471   16.2177   19.1467 O    0  0  0  0  0  0  0  0  0  0  0  0
   10.2592   15.6089   19.6617 C    0  0  0  0  0  0  0  0  0  0  0  0
   10.8775   14.6460   18.9515 N    0  0  0  0  0  0  0  0  0  0  0  0
   10.3595   15.5150   21.1708 C    0  0  0  0  0  0  0  0  0  0  0  0
   11.7062   15.2495   21.6323 O    0  0  0  0  0  0  0  0  0  0  0  0
   11.8619   15.2076   23.0694 C    0  0  0  0  0  0  0  0  0  0  0  0
   10.9115   14.1493   23.6854 C    0  0  0  0  0  0  0  0  0  0  0  0
    9.3930   14.4332   21.7029 C    0  0  0  0  0  0  0  0  0  0  0  0
    9.4995   14.1148   23.1570 N    0  0  0  0  0  0  0  0  0  0  0  0
    8.4180   13.5852   23.8278 C    0  0  0  0  0  0  0  0  0  0  0  0
    7.4052   13.2424   23.2282 O    0  0  0  0  0  0  0  0  0  0  0  0
    8.5409   13.2804   25.3275 C    0  0  0  0  0  0  0  0  0  0  0  0
    7.6014   12.1696   25.7562 C    0  0  0  0  0  0  0  0  0  0  0  0
    7.7799   10.8479   25.2752 C    0  0  0  0  0  0  0  0  0  0  0  0
    8.8492   10.5579   24.4120 O    0  0  0  0  0  0  0  0  0  0  0  0
    9.0885    9.3138   23.7120 C    0  0  0  0  0  0  0  0  0  0  0  0
    6.5188   12.4964   26.5966 C    0  0  0  0  0  0  0  0  0  0  0  0
    5.6189   11.5109   26.9936 C    0  0  0  0  0  0  0  0  0  0  0  0
    5.7932   10.2044   26.5396 C    0  0  0  0  0  0  0  0  0  0  0  0
    6.8514    9.8752   25.6812 C    0  0  0  0  0  0  0  0  0  0  0  0
   10.7699   14.6354   17.9431 H    0  0  0  0  0  0  0  0  0  0  0  0
   11.2362   13.8229   19.4358 H    0  0  0  0  0  0  0  0  0  0  0  0
   10.0554   16.4840   21.5864 H    0  0  0  0  0  0  0  0  0  0  0  0
   12.9003   14.9567   23.2941 H    0  0  0  0  0  0  0  0  0  0  0  0
   11.6659   16.1985   23.4896 H    0  0  0  0  0  0  0  0  0  0  0  0
   11.3484   13.1533   23.5629 H    0  0  0  0  0  0  0  0  0  0  0  0
   10.9305   14.3792   24.7513 H    0  0  0  0  0  0  0  0  0  0  0  0
    9.5363   13.4954   21.1562 H    0  0  0  0  0  0  0  0  0  0  0  0
    8.3862   14.7845   21.4546 H    0  0  0  0  0  0  0  0  0  0  0  0
    9.5323   12.9506   25.6415 H    0  0  0  0  0  0  0  0  0  0  0  0
    8.3553   14.2012   25.8869 H    0  0  0  0  0  0  0  0  0  0  0  0
    8.2260    9.0446   23.0984 H    0  0  0  0  0  0  0  0  0  0  0  0
    9.3031    8.5129   24.4266 H    0  0  0  0  0  0  0  0  0  0  0  0
    9.9569    9.4415   23.0637 H    0  0  0  0  0  0  0  0  0  0  0  0
    6.3671   13.5187   26.9367 H    0  0  0  0  0  0  0  0  0  0  0  0
    4.7857   11.7586   27.6434 H    0  0  0  0  0  0  0  0  0  0  0  0
    5.0934    9.4303   26.8465 H    0  0  0  0  0  0  0  0  0  0  0  0
    6.9378    8.8455   25.3443 H    0  0  0  0  0  0  0  0  0  0  0  0
  9 10  1  0  0  0  0
  7  9  1  0  0  0  0
  6  7  1  0  0  0  0
  5  6  1  0  0  0  0
  4  5  1  0  0  0  0
  2  4  1  0  0  0  0
  1  2  2  0  0  0  0
  3  2  1  0  0  0  0
 21  3  1  0  0  0  0
 22  3  1  0  0  0  0
 23  4  1  0  0  0  0
 24  6  1  0  0  0  0
 25  6  1  0  0  0  0
 26  7  1  0  0  0  0
 27  7  1  0  0  0  0
  8  4  1  0  0  0  0
 28  8  1  0  0  0  0
 29  8  1  0  0  0  0
 11 10  2  0  0  0  0
 12 10  1  0  0  0  0
 30 12  1  0  0  0  0
 31 12  1  0  0  0  0
 13 12  1  0  0  0  0
 14 13  1  0  0  0  0
 20 14  2  0  0  0  0
 15 14  1  0  0  0  0
 16 15  1  0  0  0  0
 32 16  1  0  0  0  0
 33 16  1  0  0  0  0
 34 16  1  0  0  0  0
 17 13  2  0  0  0  0
 35 17  1  0  0  0  0
 18 17  1  0  0  0  0
 36 18  1  0  0  0  0
 19 18  2  0  0  0  0
 37 19  1  0  0  0  0
 38 20  1  0  0  0  0
  9  8  1  0  0  0  0
 20 19  1  0  0  0  0
M  END
>  <FittedScore>
-34.55

$$$$
