A71EV2A-x3663a_best-RMSD
  FITTED

 38 39     0  0  0  0  0  0  0999 V2000
    9.4288   16.2405   19.1170 O    0  0  0  0  0  0  0  0  0  0  0  0
   10.3577   15.6372   19.6100 C    0  0  0  0  0  0  0  0  0  0  0  0
   10.9903   14.6836   18.8982 N    0  0  0  0  0  0  0  0  0  0  0  0
   10.4635   15.5455   21.1128 C    0  0  0  0  0  0  0  0  0  0  0  0
   11.7981   15.2101   21.5574 O    0  0  0  0  0  0  0  0  0  0  0  0
   11.9600   15.1858   22.9898 C    0  0  0  0  0  0  0  0  0  0  0  0
   10.9577   14.1948   23.6387 C    0  0  0  0  0  0  0  0  0  0  0  0
    9.4518   14.5087   21.6443 C    0  0  0  0  0  0  0  0  0  0  0  0
    9.5506   14.1718   23.0951 N    0  0  0  0  0  0  0  0  0  0  0  0
    8.4594   13.6336   23.7389 C    0  0  0  0  0  0  0  0  0  0  0  0
    7.4392   13.3420   23.1227 O    0  0  0  0  0  0  0  0  0  0  0  0
    8.5589   13.2985   25.2369 C    0  0  0  0  0  0  0  0  0  0  0  0
    7.6573   12.1384   25.6275 C    0  0  0  0  0  0  0  0  0  0  0  0
    7.8847   10.8427   25.0973 C    0  0  0  0  0  0  0  0  0  0  0  0
    8.9700   10.6358   24.2325 O    0  0  0  0  0  0  0  0  0  0  0  0
    9.2871    9.4104   23.5342 C    0  0  0  0  0  0  0  0  0  0  0  0
    6.5572   12.3920   26.4676 C    0  0  0  0  0  0  0  0  0  0  0  0
    5.6900   11.3589   26.8230 C    0  0  0  0  0  0  0  0  0  0  0  0
    5.9098   10.0759   26.3218 C    0  0  0  0  0  0  0  0  0  0  0  0
    6.9818    9.8198   25.4520 C    0  0  0  0  0  0  0  0  0  0  0  0
   11.3627   13.8615   19.3715 H    0  0  0  0  0  0  0  0  0  0  0  0
   10.9333   14.7055   17.8878 H    0  0  0  0  0  0  0  0  0  0  0  0
   10.2070   16.5293   21.5277 H    0  0  0  0  0  0  0  0  0  0  0  0
   12.9844   14.8808   23.2059 H    0  0  0  0  0  0  0  0  0  0  0  0
   11.8247   16.1951   23.3895 H    0  0  0  0  0  0  0  0  0  0  0  0
   11.3636   13.1806   23.5751 H    0  0  0  0  0  0  0  0  0  0  0  0
   10.9559   14.4739   24.6932 H    0  0  0  0  0  0  0  0  0  0  0  0
    9.5511   13.5746   21.0841 H    0  0  0  0  0  0  0  0  0  0  0  0
    8.4590   14.9050   21.4089 H    0  0  0  0  0  0  0  0  0  0  0  0
    9.5529   12.9873   25.5607 H    0  0  0  0  0  0  0  0  0  0  0  0
    8.3297   14.2021   25.8095 H    0  0  0  0  0  0  0  0  0  0  0  0
    9.4749    8.6077   24.2513 H    0  0  0  0  0  0  0  0  0  0  0  0
   10.1924    9.5733   22.9464 H    0  0  0  0  0  0  0  0  0  0  0  0
    8.4726    9.1248   22.8624 H    0  0  0  0  0  0  0  0  0  0  0  0
    6.3726   13.3941   26.8519 H    0  0  0  0  0  0  0  0  0  0  0  0
    4.8445   11.5552   27.4753 H    0  0  0  0  0  0  0  0  0  0  0  0
    5.2238    9.2705   26.5783 H    0  0  0  0  0  0  0  0  0  0  0  0
    7.0936    8.8142   25.0591 H    0  0  0  0  0  0  0  0  0  0  0  0
  9 10  1  0  0  0  0
  7  9  1  0  0  0  0
  6  7  1  0  0  0  0
  5  6  1  0  0  0  0
  4  5  1  0  0  0  0
  2  4  1  0  0  0  0
  1  2  2  0  0  0  0
  3  2  1  0  0  0  0
 21  3  1  0  0  0  0
 22  3  1  0  0  0  0
 23  4  1  0  0  0  0
 24  6  1  0  0  0  0
 25  6  1  0  0  0  0
 26  7  1  0  0  0  0
 27  7  1  0  0  0  0
  8  4  1  0  0  0  0
 28  8  1  0  0  0  0
 29  8  1  0  0  0  0
 11 10  2  0  0  0  0
 12 10  1  0  0  0  0
 30 12  1  0  0  0  0
 31 12  1  0  0  0  0
 13 12  1  0  0  0  0
 14 13  1  0  0  0  0
 20 14  2  0  0  0  0
 15 14  1  0  0  0  0
 16 15  1  0  0  0  0
 32 16  1  0  0  0  0
 33 16  1  0  0  0  0
 34 16  1  0  0  0  0
 17 13  2  0  0  0  0
 35 17  1  0  0  0  0
 18 17  1  0  0  0  0
 36 18  1  0  0  0  0
 19 18  2  0  0  0  0
 37 19  1  0  0  0  0
 38 20  1  0  0  0  0
  9  8  1  0  0  0  0
 20 19  1  0  0  0  0
M  END
>  <FittedScore>
-34.71

$$$$
