A71EV2A-x3685a_lowest-energy
  FITTED

 39 40     0  0  0  0  0  0  0999 V2000
    9.6327   16.1894   19.3623 O    0  0  0  0  0  0  0  0  0  0  0  0
   10.6677   15.5511   19.4492 C    0  0  0  0  0  0  0  0  0  0  0  0
   11.2731   14.9947   18.3979 N    0  0  0  0  0  0  0  0  0  0  0  0
   11.3184   15.2384   20.5879 N    0  0  0  0  0  0  0  0  0  0  0  0
   10.8334   15.5281   21.9400 C    0  0  0  0  0  0  0  0  0  0  0  0
   11.9024   15.3558   23.0190 C    0  0  0  0  0  0  0  0  0  0  0  0
   11.1526   14.8234   24.2465 C    0  0  0  0  0  0  0  0  0  0  0  0
    9.6741   14.6152   22.3806 C    0  0  0  0  0  0  0  0  0  0  0  0
    9.7871   14.4222   23.8346 N    0  0  0  0  0  0  0  0  0  0  0  0
    8.7947   14.0380   24.7010 C    0  0  0  0  0  0  0  0  0  0  0  0
    8.9218   14.1786   25.9090 O    0  0  0  0  0  0  0  0  0  0  0  0
    7.4829   13.4724   24.1397 C    0  0  0  0  0  0  0  0  0  0  0  0
    6.9974   12.2406   24.9150 C    0  0  0  0  0  0  0  0  0  0  0  0
    7.5188   10.9485   24.6584 C    0  0  0  0  0  0  0  0  0  0  0  0
    8.5275   10.8254   23.7001 O    0  0  0  0  0  0  0  0  0  0  0  0
    9.2541    9.6166   23.3990 C    0  0  0  0  0  0  0  0  0  0  0  0
    6.0061   12.4080   25.9027 C    0  0  0  0  0  0  0  0  0  0  0  0
    5.5128   11.3092   26.6126 C    0  0  0  0  0  0  0  0  0  0  0  0
    6.0075   10.0277   26.3488 C    0  0  0  0  0  0  0  0  0  0  0  0
    6.9944    9.8455   25.3692 C    0  0  0  0  0  0  0  0  0  0  0  0
   10.8429   15.0529   17.4852 H    0  0  0  0  0  0  0  0  0  0  0  0
   12.1405   14.4787   18.5077 H    0  0  0  0  0  0  0  0  0  0  0  0
   12.1414   14.6561   20.5237 H    0  0  0  0  0  0  0  0  0  0  0  0
   10.4924   16.5707   21.9728 H    0  0  0  0  0  0  0  0  0  0  0  0
   12.6719   14.6388   22.7142 H    0  0  0  0  0  0  0  0  0  0  0  0
   12.3951   16.3082   23.2357 H    0  0  0  0  0  0  0  0  0  0  0  0
   11.6805   13.9663   24.6722 H    0  0  0  0  0  0  0  0  0  0  0  0
   11.1011   15.6091   25.0053 H    0  0  0  0  0  0  0  0  0  0  0  0
    9.7116   13.6398   21.8829 H    0  0  0  0  0  0  0  0  0  0  0  0
    8.7261   15.0945   22.1134 H    0  0  0  0  0  0  0  0  0  0  0  0
    6.7268   14.2563   24.1574 H    0  0  0  0  0  0  0  0  0  0  0  0
    7.5634   13.1796   23.0904 H    0  0  0  0  0  0  0  0  0  0  0  0
    8.5567    8.8320   23.0945 H    0  0  0  0  0  0  0  0  0  0  0  0
    9.8353    9.2939   24.2654 H    0  0  0  0  0  0  0  0  0  0  0  0
    9.9492    9.8039   22.5772 H    0  0  0  0  0  0  0  0  0  0  0  0
    5.6113   13.3986   26.1209 H    0  0  0  0  0  0  0  0  0  0  0  0
    4.7406   11.4536   27.3627 H    0  0  0  0  0  0  0  0  0  0  0  0
    5.6245    9.1737   26.9053 H    0  0  0  0  0  0  0  0  0  0  0  0
    7.3497    8.8330   25.1875 H    0  0  0  0  0  0  0  0  0  0  0  0
  7  9  1  0  0  0  0
  6  7  1  0  0  0  0
  5  6  1  0  0  0  0
  4  5  1  0  0  0  0
  2  4  1  0  0  0  0
  1  2  2  0  0  0  0
  3  2  1  0  0  0  0
 21  3  1  0  0  0  0
 22  3  1  0  0  0  0
 23  4  1  0  0  0  0
 24  5  1  0  0  0  0
 25  6  1  0  0  0  0
 26  6  1  0  0  0  0
 27  7  1  0  0  0  0
 28  7  1  0  0  0  0
  8  5  1  0  0  0  0
 29  8  1  0  0  0  0
 30  8  1  0  0  0  0
 10  9  1  0  0  0  0
 11 10  2  0  0  0  0
 12 10  1  0  0  0  0
 31 12  1  0  0  0  0
 32 12  1  0  0  0  0
 13 12  1  0  0  0  0
 14 13  1  0  0  0  0
 20 14  2  0  0  0  0
 15 14  1  0  0  0  0
 16 15  1  0  0  0  0
 33 16  1  0  0  0  0
 34 16  1  0  0  0  0
 35 16  1  0  0  0  0
 17 13  2  0  0  0  0
 36 17  1  0  0  0  0
 18 17  1  0  0  0  0
 37 18  1  0  0  0  0
 19 18  2  0  0  0  0
 38 19  1  0  0  0  0
 39 20  1  0  0  0  0
  9  8  1  0  0  0  0
 20 19  1  0  0  0  0
M  END
>  <FittedScore>
-32.69

$$$$
