A71EV2A-x3685a_best-RMSD
  FITTED

 39 40     0  0  0  0  0  0  0999 V2000
    9.6554   16.2359   19.4496 O    0  0  0  0  0  0  0  0  0  0  0  0
   10.6291   15.5039   19.5007 C    0  0  0  0  0  0  0  0  0  0  0  0
   11.1593   14.9292   18.4147 N    0  0  0  0  0  0  0  0  0  0  0  0
   11.2476   15.0936   20.6303 N    0  0  0  0  0  0  0  0  0  0  0  0
   10.7851   15.3794   21.9981 C    0  0  0  0  0  0  0  0  0  0  0  0
   11.8634   15.1692   23.0659 C    0  0  0  0  0  0  0  0  0  0  0  0
   11.1326   14.5808   24.2800 C    0  0  0  0  0  0  0  0  0  0  0  0
    9.6064   14.4932   22.4449 C    0  0  0  0  0  0  0  0  0  0  0  0
    9.7355   14.3032   23.8971 N    0  0  0  0  0  0  0  0  0  0  0  0
    8.7389   14.0106   24.7913 C    0  0  0  0  0  0  0  0  0  0  0  0
    8.9245   14.1247   25.9924 O    0  0  0  0  0  0  0  0  0  0  0  0
    7.3685   13.5401   24.2913 C    0  0  0  0  0  0  0  0  0  0  0  0
    6.9068   12.2838   25.0392 C    0  0  0  0  0  0  0  0  0  0  0  0
    7.4373   11.0037   24.7342 C    0  0  0  0  0  0  0  0  0  0  0  0
    8.4383   10.8992   23.7642 O    0  0  0  0  0  0  0  0  0  0  0  0
    9.2437    9.7172   23.5263 C    0  0  0  0  0  0  0  0  0  0  0  0
    5.9374   12.4108   26.0557 C    0  0  0  0  0  0  0  0  0  0  0  0
    5.4682   11.2832   26.7403 C    0  0  0  0  0  0  0  0  0  0  0  0
    5.9492   10.0141   26.4051 C    0  0  0  0  0  0  0  0  0  0  0  0
    6.9237    9.8737   25.4098 C    0  0  0  0  0  0  0  0  0  0  0  0
   10.7326   15.0790   17.5110 H    0  0  0  0  0  0  0  0  0  0  0  0
   11.9815   14.3297   18.4753 H    0  0  0  0  0  0  0  0  0  0  0  0
   12.0079   14.4306   20.5535 H    0  0  0  0  0  0  0  0  0  0  0  0
   10.4674   16.4274   22.0507 H    0  0  0  0  0  0  0  0  0  0  0  0
   12.6409   14.4753   22.7306 H    0  0  0  0  0  0  0  0  0  0  0  0
   12.3481   16.1162   23.3207 H    0  0  0  0  0  0  0  0  0  0  0  0
   11.6105   13.6540   24.6097 H    0  0  0  0  0  0  0  0  0  0  0  0
   11.1721   15.2960   25.1074 H    0  0  0  0  0  0  0  0  0  0  0  0
    9.6203   13.5134   21.9530 H    0  0  0  0  0  0  0  0  0  0  0  0
    8.6677   14.9917   22.1811 H    0  0  0  0  0  0  0  0  0  0  0  0
    6.6566   14.3583   24.4270 H    0  0  0  0  0  0  0  0  0  0  0  0
    7.3414   13.3152   23.2241 H    0  0  0  0  0  0  0  0  0  0  0  0
    9.9370    9.9109   22.7080 H    0  0  0  0  0  0  0  0  0  0  0  0
    8.6184    8.8640   23.2552 H    0  0  0  0  0  0  0  0  0  0  0  0
    9.8241    9.4845   24.4207 H    0  0  0  0  0  0  0  0  0  0  0  0
    5.5434   13.3882   26.3233 H    0  0  0  0  0  0  0  0  0  0  0  0
    4.7207   11.3922   27.5222 H    0  0  0  0  0  0  0  0  0  0  0  0
    5.5701    9.1334   26.9199 H    0  0  0  0  0  0  0  0  0  0  0  0
    7.2717    8.8713   25.1882 H    0  0  0  0  0  0  0  0  0  0  0  0
  7  9  1  0  0  0  0
  6  7  1  0  0  0  0
  5  6  1  0  0  0  0
  4  5  1  0  0  0  0
  2  4  1  0  0  0  0
  1  2  2  0  0  0  0
  3  2  1  0  0  0  0
 21  3  1  0  0  0  0
 22  3  1  0  0  0  0
 23  4  1  0  0  0  0
 24  5  1  0  0  0  0
 25  6  1  0  0  0  0
 26  6  1  0  0  0  0
 27  7  1  0  0  0  0
 28  7  1  0  0  0  0
  8  5  1  0  0  0  0
 29  8  1  0  0  0  0
 30  8  1  0  0  0  0
 10  9  1  0  0  0  0
 11 10  2  0  0  0  0
 12 10  1  0  0  0  0
 31 12  1  0  0  0  0
 32 12  1  0  0  0  0
 13 12  1  0  0  0  0
 14 13  1  0  0  0  0
 20 14  2  0  0  0  0
 15 14  1  0  0  0  0
 16 15  1  0  0  0  0
 33 16  1  0  0  0  0
 34 16  1  0  0  0  0
 35 16  1  0  0  0  0
 17 13  2  0  0  0  0
 36 17  1  0  0  0  0
 18 17  1  0  0  0  0
 37 18  1  0  0  0  0
 19 18  2  0  0  0  0
 38 19  1  0  0  0  0
 39 20  1  0  0  0  0
  9  8  1  0  0  0  0
 20 19  1  0  0  0  0
M  END
>  <FittedScore>
-32.95

$$$$
