A71EV2A-x3968a_lowest-energy
  FITTED

 53 55     0  0  0  0  0  0  0999 V2000
    7.6964   14.9242   25.0818 O    0  0  0  0  0  0  0  0  0  0  0  0
    7.9715   14.7725   23.9050 C    0  0  0  0  0  0  0  0  0  0  0  0
    8.9323   15.5357   23.2942 N    0  0  0  0  0  0  0  0  0  0  0  0
   10.1025   16.1162   24.0153 C    0  0  0  0  0  0  0  0  0  0  0  0
   11.4567   15.7038   23.3736 C    0  0  0  0  0  0  0  0  0  0  0  0
   11.4965   15.9743   21.8415 C    0  0  0  0  0  0  0  0  0  0  0  0
    8.9761   15.8470   21.8349 C    0  0  0  0  0  0  0  0  0  0  0  0
   10.2620   15.3599   21.1263 C    0  0  0  0  0  0  0  0  0  0  0  0
   10.2716   15.6717   19.6222 C    0  0  0  0  0  0  0  0  0  0  0  0
    9.8517   16.6985   19.1256 O    0  0  0  0  0  0  0  0  0  0  0  0
   10.6805   14.6816   18.8131 N    0  0  0  0  0  0  0  0  0  0  0  0
    7.4526   13.5265   23.1661 C    0  0  0  0  0  0  0  0  0  0  0  0
    7.9366   12.2845   23.8998 C    0  0  0  0  0  0  0  0  0  0  0  0
    7.1725   11.6984   24.9346 C    0  0  0  0  0  0  0  0  0  0  0  0
    7.5503   10.4589   25.4648 C    0  0  0  0  0  0  0  0  0  0  0  0
    8.6976    9.8181   24.9775 C    0  0  0  0  0  0  0  0  0  0  0  0
    9.5046   10.4305   24.0126 C    0  0  0  0  0  0  0  0  0  0  0  0
    9.1285   11.6629   23.4767 C    0  0  0  0  0  0  0  0  0  0  0  0
    6.0055   13.4720   22.9882 O    0  0  0  0  0  0  0  0  0  0  0  0
    5.3552   14.6681   22.4767 C    0  0  0  0  0  0  0  0  0  0  0  0
    3.9262   14.3213   22.0097 C    0  0  0  0  0  0  0  0  0  0  0  0
    3.8830   13.6649   20.6090 C    0  0  0  0  0  0  0  0  0  0  0  0
    2.5925   14.1589   19.9343 C    0  0  0  0  0  0  0  0  0  0  0  0
    2.0766   15.3690   20.7367 C    0  0  0  0  0  0  0  0  0  0  0  0
    3.0200   15.5697   21.9290 C    0  0  0  0  0  0  0  0  0  0  0  0
   10.0168   17.2057   24.0375 H    0  0  0  0  0  0  0  0  0  0  0  0
   10.1175   15.7925   25.0579 H    0  0  0  0  0  0  0  0  0  0  0  0
   12.2617   16.2611   23.8568 H    0  0  0  0  0  0  0  0  0  0  0  0
   11.6427   14.6425   23.5659 H    0  0  0  0  0  0  0  0  0  0  0  0
   11.5293   17.0554   21.6662 H    0  0  0  0  0  0  0  0  0  0  0  0
   12.4150   15.5599   21.4218 H    0  0  0  0  0  0  0  0  0  0  0  0
    8.8957   16.9358   21.7261 H    0  0  0  0  0  0  0  0  0  0  0  0
    8.1059   15.4748   21.2941 H    0  0  0  0  0  0  0  0  0  0  0  0
   10.2966   14.2745   21.2653 H    0  0  0  0  0  0  0  0  0  0  0  0
   10.8698   13.7513   19.1789 H    0  0  0  0  0  0  0  0  0  0  0  0
   10.6863   14.8329   17.8083 H    0  0  0  0  0  0  0  0  0  0  0  0
    7.8488   13.4512   22.1520 H    0  0  0  0  0  0  0  0  0  0  0  0
    6.2655   12.1774   25.2976 H    0  0  0  0  0  0  0  0  0  0  0  0
    6.9416    9.9873   26.2325 H    0  0  0  0  0  0  0  0  0  0  0  0
    8.9776    8.8460   25.3759 H    0  0  0  0  0  0  0  0  0  0  0  0
   10.4110    9.9434   23.6630 H    0  0  0  0  0  0  0  0  0  0  0  0
    9.7490   12.1167   22.7054 H    0  0  0  0  0  0  0  0  0  0  0  0
    5.9254   15.0818   21.6423 H    0  0  0  0  0  0  0  0  0  0  0  0
    5.3240   15.4161   23.2741 H    0  0  0  0  0  0  0  0  0  0  0  0
    3.4881   13.6276   22.7378 H    0  0  0  0  0  0  0  0  0  0  0  0
    4.7494   13.9334   19.9949 H    0  0  0  0  0  0  0  0  0  0  0  0
    3.8772   12.5771   20.7065 H    0  0  0  0  0  0  0  0  0  0  0  0
    2.7802   14.4390   18.8938 H    0  0  0  0  0  0  0  0  0  0  0  0
    1.8415   13.3637   19.9268 H    0  0  0  0  0  0  0  0  0  0  0  0
    2.0552   16.2639   20.1087 H    0  0  0  0  0  0  0  0  0  0  0  0
    1.0552   15.1897   21.0851 H    0  0  0  0  0  0  0  0  0  0  0  0
    3.5988   16.4862   21.7798 H    0  0  0  0  0  0  0  0  0  0  0  0
    2.4514   15.6917   22.8540 H    0  0  0  0  0  0  0  0  0  0  0  0
  2 12  1  0  0  0  0
  3  2  1  0  0  0  0
  4  3  1  0  0  0  0
  1  2  2  0  0  0  0
 26  4  1  0  0  0  0
 27  4  1  0  0  0  0
  5  4  1  0  0  0  0
 28  5  1  0  0  0  0
 29  5  1  0  0  0  0
  6  5  1  0  0  0  0
 30  6  1  0  0  0  0
 31  6  1  0  0  0  0
  7  3  1  0  0  0  0
 32  7  1  0  0  0  0
 33  7  1  0  0  0  0
  8  6  1  0  0  0  0
  9  8  1  0  0  0  0
 34  8  1  0  0  0  0
 10  9  2  0  0  0  0
 11  9  1  0  0  0  0
 35 11  1  0  0  0  0
 36 11  1  0  0  0  0
 19 12  1  0  0  0  0
 37 12  1  0  0  0  0
 13 12  1  0  0  0  0
 18 13  2  0  0  0  0
 14 13  1  0  0  0  0
 38 14  1  0  0  0  0
 15 14  2  0  0  0  0
 39 15  1  0  0  0  0
 16 15  1  0  0  0  0
 40 16  1  0  0  0  0
 17 16  2  0  0  0  0
 41 17  1  0  0  0  0
 42 18  1  0  0  0  0
 20 19  1  0  0  0  0
 43 20  1  0  0  0  0
 44 20  1  0  0  0  0
 21 20  1  0  0  0  0
 25 21  1  0  0  0  0
 45 21  1  0  0  0  0
 22 21  1  0  0  0  0
 46 22  1  0  0  0  0
 47 22  1  0  0  0  0
 23 22  1  0  0  0  0
 48 23  1  0  0  0  0
 49 23  1  0  0  0  0
 24 23  1  0  0  0  0
 50 24  1  0  0  0  0
 51 24  1  0  0  0  0
 52 25  1  0  0  0  0
 53 25  1  0  0  0  0
  8  7  1  0  0  0  0
 18 17  1  0  0  0  0
 25 24  1  0  0  0  0
M  END
>  <FittedScore>
-32.62

$$$$
