A71EV2A-x3968a_best-RMSD
  FITTED

 53 55     0  0  0  0  0  0  0999 V2000
    7.5299   14.9267   24.9251 O    0  0  0  0  0  0  0  0  0  0  0  0
    7.9197   14.7357   23.7859 C    0  0  0  0  0  0  0  0  0  0  0  0
    8.8749   15.5319   23.2129 N    0  0  0  0  0  0  0  0  0  0  0  0
    9.9853   16.1657   23.9813 C    0  0  0  0  0  0  0  0  0  0  0  0
   11.3831   15.8201   23.3922 C    0  0  0  0  0  0  0  0  0  0  0  0
   11.4757   16.0897   21.8634 C    0  0  0  0  0  0  0  0  0  0  0  0
    8.9584   15.8360   21.7563 C    0  0  0  0  0  0  0  0  0  0  0  0
   10.2991   15.4099   21.1136 C    0  0  0  0  0  0  0  0  0  0  0  0
   10.3444   15.7184   19.6161 C    0  0  0  0  0  0  0  0  0  0  0  0
    9.9664   16.7541   19.1049 O    0  0  0  0  0  0  0  0  0  0  0  0
   10.6561   14.6841   18.8244 N    0  0  0  0  0  0  0  0  0  0  0  0
    7.5699   13.4236   23.0706 C    0  0  0  0  0  0  0  0  0  0  0  0
    8.0701   12.2276   23.8713 C    0  0  0  0  0  0  0  0  0  0  0  0
    9.2690   11.5965   23.4873 C    0  0  0  0  0  0  0  0  0  0  0  0
    9.6015   10.3456   24.0151 C    0  0  0  0  0  0  0  0  0  0  0  0
    8.7496    9.7330   24.9392 C    0  0  0  0  0  0  0  0  0  0  0  0
    7.6062   10.3942   25.4043 C    0  0  0  0  0  0  0  0  0  0  0  0
    7.2744   11.6504   24.8854 C    0  0  0  0  0  0  0  0  0  0  0  0
    6.1443   13.2609   22.8394 O    0  0  0  0  0  0  0  0  0  0  0  0
    5.4520   14.1194   21.9022 C    0  0  0  0  0  0  0  0  0  0  0  0
    4.0291   14.3403   22.4601 C    0  0  0  0  0  0  0  0  0  0  0  0
    3.0750   14.9863   21.4346 C    0  0  0  0  0  0  0  0  0  0  0  0
    2.0745   15.8300   22.2445 C    0  0  0  0  0  0  0  0  0  0  0  0
    2.6483   15.9956   23.6677 C    0  0  0  0  0  0  0  0  0  0  0  0
    3.9993   15.2546   23.7114 C    0  0  0  0  0  0  0  0  0  0  0  0
    9.8422   17.2503   24.0014 H    0  0  0  0  0  0  0  0  0  0  0  0
    9.9778   15.8366   25.0244 H    0  0  0  0  0  0  0  0  0  0  0  0
   12.1426   16.4157   23.9041 H    0  0  0  0  0  0  0  0  0  0  0  0
   11.6142   14.7688   23.5953 H    0  0  0  0  0  0  0  0  0  0  0  0
   11.4707   17.1695   21.6794 H    0  0  0  0  0  0  0  0  0  0  0  0
   12.4297   15.7058   21.4825 H    0  0  0  0  0  0  0  0  0  0  0  0
    8.8094   16.9153   21.6308 H    0  0  0  0  0  0  0  0  0  0  0  0
    8.1414   15.3970   21.1867 H    0  0  0  0  0  0  0  0  0  0  0  0
   10.3933   14.3258   21.2660 H    0  0  0  0  0  0  0  0  0  0  0  0
   10.5848   14.7967   17.8161 H    0  0  0  0  0  0  0  0  0  0  0  0
   10.7999   13.7518   19.2075 H    0  0  0  0  0  0  0  0  0  0  0  0
    8.0285   13.3396   22.0813 H    0  0  0  0  0  0  0  0  0  0  0  0
    9.9220   12.0485   22.7423 H    0  0  0  0  0  0  0  0  0  0  0  0
   10.5093    9.8475   23.6895 H    0  0  0  0  0  0  0  0  0  0  0  0
    8.9927    8.7465   25.3258 H    0  0  0  0  0  0  0  0  0  0  0  0
    6.9655    9.9268   26.1489 H    0  0  0  0  0  0  0  0  0  0  0  0
    6.3645   12.1405   25.2258 H    0  0  0  0  0  0  0  0  0  0  0  0
    5.4352   13.6243   20.9286 H    0  0  0  0  0  0  0  0  0  0  0  0
    5.9526   15.0821   21.7803 H    0  0  0  0  0  0  0  0  0  0  0  0
    3.6157   13.3643   22.7424 H    0  0  0  0  0  0  0  0  0  0  0  0
    3.6131   15.6240   20.7261 H    0  0  0  0  0  0  0  0  0  0  0  0
    2.5559   14.2140   20.8592 H    0  0  0  0  0  0  0  0  0  0  0  0
    1.9228   16.8022   21.7707 H    0  0  0  0  0  0  0  0  0  0  0  0
    1.1068   15.3257   22.2850 H    0  0  0  0  0  0  0  0  0  0  0  0
    2.7895   17.0536   23.9044 H    0  0  0  0  0  0  0  0  0  0  0  0
    1.9592   15.5784   24.4091 H    0  0  0  0  0  0  0  0  0  0  0  0
    4.8215   15.9801   23.7132 H    0  0  0  0  0  0  0  0  0  0  0  0
    4.0908   14.6599   24.6259 H    0  0  0  0  0  0  0  0  0  0  0  0
  2 12  1  0  0  0  0
  3  2  1  0  0  0  0
  4  3  1  0  0  0  0
  1  2  2  0  0  0  0
 26  4  1  0  0  0  0
 27  4  1  0  0  0  0
  5  4  1  0  0  0  0
 28  5  1  0  0  0  0
 29  5  1  0  0  0  0
  6  5  1  0  0  0  0
 30  6  1  0  0  0  0
 31  6  1  0  0  0  0
  7  3  1  0  0  0  0
 32  7  1  0  0  0  0
 33  7  1  0  0  0  0
  8  6  1  0  0  0  0
  9  8  1  0  0  0  0
 34  8  1  0  0  0  0
 10  9  2  0  0  0  0
 11  9  1  0  0  0  0
 35 11  1  0  0  0  0
 36 11  1  0  0  0  0
 19 12  1  0  0  0  0
 37 12  1  0  0  0  0
 13 12  1  0  0  0  0
 18 13  2  0  0  0  0
 14 13  1  0  0  0  0
 38 14  1  0  0  0  0
 15 14  2  0  0  0  0
 39 15  1  0  0  0  0
 16 15  1  0  0  0  0
 40 16  1  0  0  0  0
 17 16  2  0  0  0  0
 41 17  1  0  0  0  0
 42 18  1  0  0  0  0
 20 19  1  0  0  0  0
 43 20  1  0  0  0  0
 44 20  1  0  0  0  0
 21 20  1  0  0  0  0
 25 21  1  0  0  0  0
 45 21  1  0  0  0  0
 22 21  1  0  0  0  0
 46 22  1  0  0  0  0
 47 22  1  0  0  0  0
 23 22  1  0  0  0  0
 48 23  1  0  0  0  0
 49 23  1  0  0  0  0
 24 23  1  0  0  0  0
 50 24  1  0  0  0  0
 51 24  1  0  0  0  0
 52 25  1  0  0  0  0
 53 25  1  0  0  0  0
  8  7  1  0  0  0  0
 18 17  1  0  0  0  0
 25 24  1  0  0  0  0
M  END
>  <FittedScore>
-32.91

$$$$
