A71EV2A-x7597a_best-RMSD
  FITTED

 45 47     0  0  0  0  0  0  0999 V2000
    9.0433    8.9232   23.3517 C    0  0  0  0  0  0  0  0  0  0  0  0
    9.0265   10.6308   23.9698 S    0  0  0  0  0  0  0  0  0  0  0  0
    7.4452   10.8815   24.7773 C    0  0  0  0  0  0  0  0  0  0  0  0
    6.6767    9.8212   25.2903 C    0  0  0  0  0  0  0  0  0  0  0  0
    5.4366   10.0593   25.9020 C    0  0  0  0  0  0  0  0  0  0  0  0
    4.9184   11.3722   26.0231 C    0  0  0  0  0  0  0  0  0  0  0  0
    3.6623   11.6111   26.6264 C    0  0  0  0  0  0  0  0  0  0  0  0
    3.0098   12.8397   26.7479 C    0  0  0  0  0  0  0  0  0  0  0  0
    1.8122   12.6091   27.3753 C    0  0  0  0  0  0  0  0  0  0  0  0
    1.7266   11.2752   27.6145 N    0  0  0  0  0  0  0  0  0  0  0  0
    2.8192   10.5495   27.2401 N    0  0  0  0  0  0  0  0  0  0  0  0
    5.7059   12.4301   25.5203 C    0  0  0  0  0  0  0  0  0  0  0  0
    6.9446   12.1881   24.9173 C    0  0  0  0  0  0  0  0  0  0  0  0
    7.6735   13.2817   24.4944 O    0  0  0  0  0  0  0  0  0  0  0  0
    7.7088   13.7074   23.2075 C    0  0  0  0  0  0  0  0  0  0  0  0
    6.9370   13.2657   22.3674 O    0  0  0  0  0  0  0  0  0  0  0  0
    8.6788   14.6286   22.9134 N    0  0  0  0  0  0  0  0  0  0  0  0
    9.6184   15.2656   23.9097 C    0  0  0  0  0  0  0  0  0  0  0  0
   11.1098   15.2943   23.4641 C    0  0  0  0  0  0  0  0  0  0  0  0
   11.2754   15.8896   22.0423 C    0  0  0  0  0  0  0  0  0  0  0  0
   10.3327   15.1527   21.0555 C    0  0  0  0  0  0  0  0  0  0  0  0
   10.4582   15.7018   19.6475 C    0  0  0  0  0  0  0  0  0  0  0  0
   10.9071   14.8303   18.7297 N    0  0  0  0  0  0  0  0  0  0  0  0
   10.0032   16.7723   19.3033 O    0  0  0  0  0  0  0  0  0  0  0  0
    8.8599   15.1876   21.5401 C    0  0  0  0  0  0  0  0  0  0  0  0
    8.1547    8.7457   22.7421 H    0  0  0  0  0  0  0  0  0  0  0  0
    9.0746    8.2116   24.1800 H    0  0  0  0  0  0  0  0  0  0  0  0
    9.9200    8.7742   22.7196 H    0  0  0  0  0  0  0  0  0  0  0  0
    7.0154    8.7958   25.2219 H    0  0  0  0  0  0  0  0  0  0  0  0
    4.8858    9.1966   26.2679 H    0  0  0  0  0  0  0  0  0  0  0  0
    3.3578   13.8156   26.4154 H    0  0  0  0  0  0  0  0  0  0  0  0
    1.0566   13.3440   27.6384 H    0  0  0  0  0  0  0  0  0  0  0  0
    0.9613   10.8648   28.1409 H    0  0  0  0  0  0  0  0  0  0  0  0
    5.3829   13.4657   25.5924 H    0  0  0  0  0  0  0  0  0  0  0  0
    9.6029   14.7644   24.8790 H    0  0  0  0  0  0  0  0  0  0  0  0
    9.2817   16.2898   24.1046 H    0  0  0  0  0  0  0  0  0  0  0  0
   11.5141   14.2787   23.4890 H    0  0  0  0  0  0  0  0  0  0  0  0
   11.6948   15.8836   24.1745 H    0  0  0  0  0  0  0  0  0  0  0  0
   12.3155   15.7779   21.7212 H    0  0  0  0  0  0  0  0  0  0  0  0
   11.0556   16.9633   22.0605 H    0  0  0  0  0  0  0  0  0  0  0  0
   10.6362   14.1013   21.0416 H    0  0  0  0  0  0  0  0  0  0  0  0
   10.9544   15.1283   17.7638 H    0  0  0  0  0  0  0  0  0  0  0  0
   11.0371   13.8382   18.9708 H    0  0  0  0  0  0  0  0  0  0  0  0
    8.2631   14.6582   20.7932 H    0  0  0  0  0  0  0  0  0  0  0  0
    8.4793   16.2152   21.5398 H    0  0  0  0  0  0  0  0  0  0  0  0
 13 14  1  0  0  0  0
 12 13  2  0  0  0  0
  6 12  1  0  0  0  0
  5  6  2  0  0  0  0
  4  5  1  0  0  0  0
  3  4  2  0  0  0  0
  2  3  1  0  0  0  0
  1  2  1  0  0  0  0
 26  1  1  0  0  0  0
 27  1  1  0  0  0  0
 28  1  1  0  0  0  0
 29  4  1  0  0  0  0
 30  5  1  0  0  0  0
  7  6  1  0  0  0  0
  8  7  1  0  0  0  0
  9  8  2  0  0  0  0
 31  8  1  0  0  0  0
 10  9  1  0  0  0  0
 32  9  1  0  0  0  0
 11 10  1  0  0  0  0
 33 10  1  0  0  0  0
 34 12  1  0  0  0  0
 15 14  1  0  0  0  0
 16 15  2  0  0  0  0
 17 15  1  0  0  0  0
 18 17  1  0  0  0  0
 19 18  1  0  0  0  0
 35 18  1  0  0  0  0
 36 18  1  0  0  0  0
 20 19  1  0  0  0  0
 37 19  1  0  0  0  0
 38 19  1  0  0  0  0
 21 20  1  0  0  0  0
 39 20  1  0  0  0  0
 40 20  1  0  0  0  0
 22 21  1  0  0  0  0
 25 21  1  0  0  0  0
 41 21  1  0  0  0  0
 23 22  1  0  0  0  0
 24 22  2  0  0  0  0
 42 23  1  0  0  0  0
 43 23  1  0  0  0  0
 44 25  1  0  0  0  0
 45 25  1  0  0  0  0
 11  7  2  0  0  0  0
 13  3  1  0  0  0  0
 25 17  1  0  0  0  0
M  END
>  <FittedScore>
-32.64

$$$$
