A71EV2A-x3937a_lowest-energy
  FITTED

 39 40     0  0  0  0  0  0  0999 V2000
    9.4479   16.2838   19.3669 O    0  0  0  0  0  0  0  0  0  0  0  0
   10.1568   15.3688   19.7375 C    0  0  0  0  0  0  0  0  0  0  0  0
   10.8078   14.6105   18.8419 N    0  0  0  0  0  0  0  0  0  0  0  0
   10.2452   14.8539   21.1672 C    0  0  0  0  0  0  0  0  0  0  0  0
   11.3429   15.5871   21.9754 C    0  0  0  0  0  0  0  0  0  0  0  0
   11.4693   14.9236   23.3633 C    0  0  0  0  0  0  0  0  0  0  0  0
   10.1096   14.7855   24.0944 C    0  0  0  0  0  0  0  0  0  0  0  0
    8.8900   14.8580   21.9293 C    0  0  0  0  0  0  0  0  0  0  0  0
    8.9667   14.2211   23.2831 N    0  0  0  0  0  0  0  0  0  0  0  0
    8.0069   13.3300   23.7275 C    0  0  0  0  0  0  0  0  0  0  0  0
    7.0823   12.9846   23.0096 O    0  0  0  0  0  0  0  0  0  0  0  0
    8.1591   12.6538   25.1093 C    0  0  0  0  0  0  0  0  0  0  0  0
    9.2506   11.6769   25.0954 O    0  0  0  0  0  0  0  0  0  0  0  0
    9.3550   10.6481   24.0806 C    0  0  0  0  0  0  0  0  0  0  0  0
    6.8520   12.1834   25.7835 C    0  0  0  0  0  0  0  0  0  0  0  0
    6.6602   10.8825   26.3012 C    0  0  0  0  0  0  0  0  0  0  0  0
    5.5785   10.5338   27.0565 N    0  0  0  0  0  0  0  0  0  0  0  0
    4.6309   11.4798   27.3059 C    0  0  0  0  0  0  0  0  0  0  0  0
    4.7257   12.7857   26.7989 C    0  0  0  0  0  0  0  0  0  0  0  0
    5.8483   13.1420   26.0456 C    0  0  0  0  0  0  0  0  0  0  0  0
   10.7365   14.8402   17.8603 H    0  0  0  0  0  0  0  0  0  0  0  0
   11.1666   13.7002   19.1321 H    0  0  0  0  0  0  0  0  0  0  0  0
   10.5387   13.7959   21.1213 H    0  0  0  0  0  0  0  0  0  0  0  0
   12.3041   15.5177   21.4596 H    0  0  0  0  0  0  0  0  0  0  0  0
   11.1134   16.6519   22.0804 H    0  0  0  0  0  0  0  0  0  0  0  0
   11.9253   13.9343   23.2502 H    0  0  0  0  0  0  0  0  0  0  0  0
   12.1498   15.5124   23.9821 H    0  0  0  0  0  0  0  0  0  0  0  0
   10.3463   14.1889   24.9711 H    0  0  0  0  0  0  0  0  0  0  0  0
    9.8044   15.7641   24.4773 H    0  0  0  0  0  0  0  0  0  0  0  0
    8.1583   14.3631   21.2845 H    0  0  0  0  0  0  0  0  0  0  0  0
    8.5180   15.8774   22.0572 H    0  0  0  0  0  0  0  0  0  0  0  0
    8.4917   13.4050   25.8275 H    0  0  0  0  0  0  0  0  0  0  0  0
   10.1000    9.9198   24.4030 H    0  0  0  0  0  0  0  0  0  0  0  0
    9.6865   11.0891   23.1383 H    0  0  0  0  0  0  0  0  0  0  0  0
    8.4004   10.1362   23.9360 H    0  0  0  0  0  0  0  0  0  0  0  0
    7.4164   10.1189   26.1443 H    0  0  0  0  0  0  0  0  0  0  0  0
    3.7674   11.2107   27.9077 H    0  0  0  0  0  0  0  0  0  0  0  0
    3.9503   13.5174   27.0021 H    0  0  0  0  0  0  0  0  0  0  0  0
    5.9513   14.1647   25.6909 H    0  0  0  0  0  0  0  0  0  0  0  0
  7  9  1  0  0  0  0
  6  7  1  0  0  0  0
  5  6  1  0  0  0  0
  4  5  1  0  0  0  0
  2  4  1  0  0  0  0
  1  2  2  0  0  0  0
  3  2  1  0  0  0  0
 21  3  1  0  0  0  0
 22  3  1  0  0  0  0
 23  4  1  0  0  0  0
 24  5  1  0  0  0  0
 25  5  1  0  0  0  0
 26  6  1  0  0  0  0
 27  6  1  0  0  0  0
 28  7  1  0  0  0  0
 29  7  1  0  0  0  0
  8  4  1  0  0  0  0
 30  8  1  0  0  0  0
 31  8  1  0  0  0  0
 10  9  1  0  0  0  0
 11 10  2  0  0  0  0
 12 10  1  0  0  0  0
 13 12  1  0  0  0  0
 32 12  1  0  0  0  0
 14 13  1  0  0  0  0
 33 14  1  0  0  0  0
 34 14  1  0  0  0  0
 35 14  1  0  0  0  0
 15 12  1  0  0  0  0
 20 15  2  0  0  0  0
 16 15  1  0  0  0  0
 36 16  1  0  0  0  0
 17 16  2  0  0  0  0
 18 17  1  0  0  0  0
 37 18  1  0  0  0  0
 19 18  2  0  0  0  0
 38 19  1  0  0  0  0
 39 20  1  0  0  0  0
  9  8  1  0  0  0  0
 20 19  1  0  0  0  0
M  END
>  <FittedScore>
-28.91

$$$$
