A71EV2A-x4711a_lowest-energy
  FITTED

 37 38     0  0  0  0  0  0  0999 V2000
   10.8632   14.6271   25.1114 O    0  0  0  0  0  0  0  0  0  0  0  0
   10.6920   15.0494   23.9802 C    0  0  0  0  0  0  0  0  0  0  0  0
   11.8474   15.7713   23.2725 C    0  0  0  0  0  0  0  0  0  0  0  0
   11.5530   16.3568   21.8621 C    0  0  0  0  0  0  0  0  0  0  0  0
   10.6270   15.4099   21.0554 C    0  0  0  0  0  0  0  0  0  0  0  0
   10.3661   15.9329   19.6368 C    0  0  0  0  0  0  0  0  0  0  0  0
    9.4152   16.6150   19.3202 O    0  0  0  0  0  0  0  0  0  0  0  0
   11.2522   15.5712   18.6916 N    0  0  0  0  0  0  0  0  0  0  0  0
    9.3133   15.1799   21.8637 C    0  0  0  0  0  0  0  0  0  0  0  0
    9.5300   14.8031   23.2897 N    0  0  0  0  0  0  0  0  0  0  0  0
    8.3476   14.1265   23.9046 C    0  0  0  0  0  0  0  0  0  0  0  0
    8.3521   12.5902   23.8285 C    0  0  0  0  0  0  0  0  0  0  0  0
    9.3438   11.8268   23.1698 C    0  0  0  0  0  0  0  0  0  0  0  0
    9.2768   10.4264   23.1586 C    0  0  0  0  0  0  0  0  0  0  0  0
    8.2244    9.7660   23.7985 C    0  0  0  0  0  0  0  0  0  0  0  0
    7.2957   11.9117   24.4609 C    0  0  0  0  0  0  0  0  0  0  0  0
    7.2313   10.5073   24.4519 C    0  0  0  0  0  0  0  0  0  0  0  0
    5.9128    9.6251   25.2310 S    0  0  0  0  0  0  0  0  0  0  0  0
    5.4460   10.5717   26.7098 C    0  0  0  0  0  0  0  0  0  0  0  0
   12.1963   16.5802   23.9179 H    0  0  0  0  0  0  0  0  0  0  0  0
   12.6761   15.0637   23.1816 H    0  0  0  0  0  0  0  0  0  0  0  0
   11.0865   17.3419   21.9607 H    0  0  0  0  0  0  0  0  0  0  0  0
   12.4971   16.5077   21.3309 H    0  0  0  0  0  0  0  0  0  0  0  0
   11.1211   14.4320   20.9737 H    0  0  0  0  0  0  0  0  0  0  0  0
   11.0101   15.6593   17.7110 H    0  0  0  0  0  0  0  0  0  0  0  0
   12.0261   14.9613   18.9362 H    0  0  0  0  0  0  0  0  0  0  0  0
    8.7055   16.0903   21.8553 H    0  0  0  0  0  0  0  0  0  0  0  0
    8.7319   14.4099   21.3437 H    0  0  0  0  0  0  0  0  0  0  0  0
    8.2697   14.4237   24.9550 H    0  0  0  0  0  0  0  0  0  0  0  0
    7.4212   14.5007   23.4575 H    0  0  0  0  0  0  0  0  0  0  0  0
   10.1817   12.2983   22.6642 H    0  0  0  0  0  0  0  0  0  0  0  0
   10.0495    9.8451   22.6622 H    0  0  0  0  0  0  0  0  0  0  0  0
    8.1885    8.6794   23.7872 H    0  0  0  0  0  0  0  0  0  0  0  0
    6.5263   12.4899   24.9651 H    0  0  0  0  0  0  0  0  0  0  0  0
    4.7650    9.9775   27.3212 H    0  0  0  0  0  0  0  0  0  0  0  0
    4.9456   11.4967   26.4186 H    0  0  0  0  0  0  0  0  0  0  0  0
    6.3427   10.8031   27.2862 H    0  0  0  0  0  0  0  0  0  0  0  0
  9 10  1  0  0  0  0
  5  9  1  0  0  0  0
  6  5  1  0  0  0  0
  4  5  1  0  0  0  0
  3  4  1  0  0  0  0
  2  3  1  0  0  0  0
  1  2  2  0  0  0  0
 20  3  1  0  0  0  0
 21  3  1  0  0  0  0
 22  4  1  0  0  0  0
 23  4  1  0  0  0  0
 24  5  1  0  0  0  0
  7  6  2  0  0  0  0
  8  6  1  0  0  0  0
 25  8  1  0  0  0  0
 26  8  1  0  0  0  0
 27  9  1  0  0  0  0
 28  9  1  0  0  0  0
 11 10  1  0  0  0  0
 29 11  1  0  0  0  0
 30 11  1  0  0  0  0
 12 11  1  0  0  0  0
 13 12  1  0  0  0  0
 31 13  1  0  0  0  0
 14 13  2  0  0  0  0
 32 14  1  0  0  0  0
 15 14  1  0  0  0  0
 33 15  1  0  0  0  0
 16 12  2  0  0  0  0
 34 16  1  0  0  0  0
 17 15  2  0  0  0  0
 18 17  1  0  0  0  0
 19 18  1  0  0  0  0
 35 19  1  0  0  0  0
 36 19  1  0  0  0  0
 37 19  1  0  0  0  0
 10  2  1  0  0  0  0
 17 16  1  0  0  0  0
M  END
>  <FittedScore>
-28.72

$$$$
