A71EV2A-x5475b_lowest-energy
  FITTED

 45 47     0  0  0  0  0  0  0999 V2000
    9.8461   16.7282   19.3428 O    0  0  0  0  0  0  0  0  0  0  0  0
   10.3355   15.6636   19.6727 C    0  0  0  0  0  0  0  0  0  0  0  0
   10.5477   14.7040   18.7581 N    0  0  0  0  0  0  0  0  0  0  0  0
   10.4690   15.1988   21.1210 C    0  0  0  0  0  0  0  0  0  0  0  0
   11.3771   16.1560   21.9445 C    0  0  0  0  0  0  0  0  0  0  0  0
   11.3975   15.7453   23.4367 C    0  0  0  0  0  0  0  0  0  0  0  0
    9.9597   15.5881   23.9914 C    0  0  0  0  0  0  0  0  0  0  0  0
    9.0590   15.0190   21.7675 C    0  0  0  0  0  0  0  0  0  0  0  0
    9.1032   14.6245   23.2113 N    0  0  0  0  0  0  0  0  0  0  0  0
    8.3681   13.5640   23.7150 C    0  0  0  0  0  0  0  0  0  0  0  0
    7.5430   12.9950   23.0144 O    0  0  0  0  0  0  0  0  0  0  0  0
    8.6486   13.0135   25.1282 C    0  0  0  0  0  0  0  0  0  0  0  0
    7.4067   12.3770   25.7674 C    0  0  0  0  0  0  0  0  0  0  0  0
    6.3362   13.1838   26.2025 C    0  0  0  0  0  0  0  0  0  0  0  0
    5.2238   12.6067   26.8347 C    0  0  0  0  0  0  0  0  0  0  0  0
    3.8301   13.6100   27.3088 S    0  0  0  0  0  0  0  0  0  0  0  0
    3.1231   14.0356   25.6768 C    0  0  0  0  0  0  0  0  0  0  0  0
    9.8900   12.0657   25.0963 C    0  0  0  0  0  0  0  0  0  0  0  0
    9.4790   10.6344   24.6664 C    0  0  0  0  0  0  0  0  0  0  0  0
    8.3726   10.1528   25.4841 O    0  0  0  0  0  0  0  0  0  0  0  0
    7.3460   10.9778   25.9422 C    0  0  0  0  0  0  0  0  0  0  0  0
    6.2581   10.4133   26.6274 C    0  0  0  0  0  0  0  0  0  0  0  0
    5.2066   11.2229   27.0783 C    0  0  0  0  0  0  0  0  0  0  0  0
   10.5099   14.9145   17.7716 H    0  0  0  0  0  0  0  0  0  0  0  0
   10.7508   13.7517   19.0551 H    0  0  0  0  0  0  0  0  0  0  0  0
   10.9585   14.2138   21.1513 H    0  0  0  0  0  0  0  0  0  0  0  0
   12.3955   16.1305   21.5474 H    0  0  0  0  0  0  0  0  0  0  0  0
   11.0276   17.1887   21.8603 H    0  0  0  0  0  0  0  0  0  0  0  0
   11.9439   14.8053   23.5582 H    0  0  0  0  0  0  0  0  0  0  0  0
   11.9308   16.5046   24.0144 H    0  0  0  0  0  0  0  0  0  0  0  0
   10.0743   15.3419   25.0406 H    0  0  0  0  0  0  0  0  0  0  0  0
    9.4669   16.5658   23.9875 H    0  0  0  0  0  0  0  0  0  0  0  0
    8.5233   14.2936   21.1473 H    0  0  0  0  0  0  0  0  0  0  0  0
    8.4811   15.9445   21.6842 H    0  0  0  0  0  0  0  0  0  0  0  0
    8.8788   13.8133   25.8292 H    0  0  0  0  0  0  0  0  0  0  0  0
    6.3704   14.2600   26.0442 H    0  0  0  0  0  0  0  0  0  0  0  0
    2.2042   14.6127   25.8120 H    0  0  0  0  0  0  0  0  0  0  0  0
    2.8995   13.1244   25.1163 H    0  0  0  0  0  0  0  0  0  0  0  0
    3.8369   14.6355   25.1084 H    0  0  0  0  0  0  0  0  0  0  0  0
   10.3375   12.0245   26.0923 H    0  0  0  0  0  0  0  0  0  0  0  0
   10.6658   12.4455   24.4263 H    0  0  0  0  0  0  0  0  0  0  0  0
   10.3213    9.9478   24.7813 H    0  0  0  0  0  0  0  0  0  0  0  0
    9.1885   10.6134   23.6105 H    0  0  0  0  0  0  0  0  0  0  0  0
    6.2177    9.3378   26.7964 H    0  0  0  0  0  0  0  0  0  0  0  0
    4.3589   10.7669   27.5836 H    0  0  0  0  0  0  0  0  0  0  0  0
  9 10  1  0  0  0  0
  7  9  1  0  0  0  0
  6  7  1  0  0  0  0
  5  6  1  0  0  0  0
  4  5  1  0  0  0  0
  2  4  1  0  0  0  0
  1  2  2  0  0  0  0
  3  2  1  0  0  0  0
 24  3  1  0  0  0  0
 25  3  1  0  0  0  0
 26  4  1  0  0  0  0
 27  5  1  0  0  0  0
 28  5  1  0  0  0  0
 29  6  1  0  0  0  0
 30  6  1  0  0  0  0
 31  7  1  0  0  0  0
 32  7  1  0  0  0  0
  8  4  1  0  0  0  0
 33  8  1  0  0  0  0
 34  8  1  0  0  0  0
 11 10  2  0  0  0  0
 12 10  1  0  0  0  0
 35 12  1  0  0  0  0
 13 12  1  0  0  0  0
 14 13  2  0  0  0  0
 36 14  1  0  0  0  0
 15 14  1  0  0  0  0
 23 15  2  0  0  0  0
 16 15  1  0  0  0  0
 17 16  1  0  0  0  0
 37 17  1  0  0  0  0
 38 17  1  0  0  0  0
 39 17  1  0  0  0  0
 18 12  1  0  0  0  0
 40 18  1  0  0  0  0
 41 18  1  0  0  0  0
 19 18  1  0  0  0  0
 42 19  1  0  0  0  0
 43 19  1  0  0  0  0
 20 19  1  0  0  0  0
 21 13  1  0  0  0  0
 22 21  2  0  0  0  0
 44 22  1  0  0  0  0
 45 23  1  0  0  0  0
  9  8  1  0  0  0  0
 21 20  1  0  0  0  0
 23 22  1  0  0  0  0
M  END
>  <FittedScore>
-32.11

$$$$
