A71EV2A-x5475b_best-RMSD
  FITTED

 45 47     0  0  0  0  0  0  0999 V2000
    9.7164   16.7277   19.3695 O    0  0  0  0  0  0  0  0  0  0  0  0
   10.2236   15.6744   19.7073 C    0  0  0  0  0  0  0  0  0  0  0  0
   10.4965   14.7283   18.7904 N    0  0  0  0  0  0  0  0  0  0  0  0
   10.3612   15.2241   21.1593 C    0  0  0  0  0  0  0  0  0  0  0  0
   11.2992   16.1759   21.9581 C    0  0  0  0  0  0  0  0  0  0  0  0
   11.3643   15.7654   23.4487 C    0  0  0  0  0  0  0  0  0  0  0  0
    9.9475   15.5713   24.0518 C    0  0  0  0  0  0  0  0  0  0  0  0
    8.9672   15.0868   21.8454 C    0  0  0  0  0  0  0  0  0  0  0  0
    9.0574   14.6354   23.2724 N    0  0  0  0  0  0  0  0  0  0  0  0
    8.3430   13.5542   23.7628 C    0  0  0  0  0  0  0  0  0  0  0  0
    7.5330   12.9706   23.0571 O    0  0  0  0  0  0  0  0  0  0  0  0
    8.6485   12.9796   25.1651 C    0  0  0  0  0  0  0  0  0  0  0  0
    7.4153   12.3645   25.8351 C    0  0  0  0  0  0  0  0  0  0  0  0
    6.4098   13.2014   26.3513 C    0  0  0  0  0  0  0  0  0  0  0  0
    5.2950   12.6512   27.0025 C    0  0  0  0  0  0  0  0  0  0  0  0
    3.9800   13.7092   27.5636 S    0  0  0  0  0  0  0  0  0  0  0  0
    3.2905   14.2523   25.9608 C    0  0  0  0  0  0  0  0  0  0  0  0
    9.8624   12.0074   25.0982 C    0  0  0  0  0  0  0  0  0  0  0  0
    9.4166   10.5829   24.6726 C    0  0  0  0  0  0  0  0  0  0  0  0
    8.2977   10.1172   25.4848 O    0  0  0  0  0  0  0  0  0  0  0  0
    7.3048   10.9645   25.9733 C    0  0  0  0  0  0  0  0  0  0  0  0
    6.2098   10.4231   26.6648 C    0  0  0  0  0  0  0  0  0  0  0  0
    5.2115   11.2624   27.1834 C    0  0  0  0  0  0  0  0  0  0  0  0
   10.3994   14.9317   17.8076 H    0  0  0  0  0  0  0  0  0  0  0  0
   10.7132   13.7765   19.0787 H    0  0  0  0  0  0  0  0  0  0  0  0
   10.8219   14.2282   21.1859 H    0  0  0  0  0  0  0  0  0  0  0  0
   12.3047   16.1496   21.5294 H    0  0  0  0  0  0  0  0  0  0  0  0
   10.9447   17.2090   21.8840 H    0  0  0  0  0  0  0  0  0  0  0  0
   11.9405   14.8405   23.5514 H    0  0  0  0  0  0  0  0  0  0  0  0
   11.8978   16.5367   24.0122 H    0  0  0  0  0  0  0  0  0  0  0  0
   10.1066   15.2847   25.0834 H    0  0  0  0  0  0  0  0  0  0  0  0
    9.4516   16.5430   24.1147 H    0  0  0  0  0  0  0  0  0  0  0  0
    8.3698   14.4167   21.2203 H    0  0  0  0  0  0  0  0  0  0  0  0
    8.4391   16.0461   21.8145 H    0  0  0  0  0  0  0  0  0  0  0  0
    8.9164   13.7603   25.8704 H    0  0  0  0  0  0  0  0  0  0  0  0
    6.4964   14.2805   26.2380 H    0  0  0  0  0  0  0  0  0  0  0  0
    2.3690   14.8175   26.1222 H    0  0  0  0  0  0  0  0  0  0  0  0
    3.0712   13.3806   25.3392 H    0  0  0  0  0  0  0  0  0  0  0  0
    4.0096   14.8851   25.4367 H    0  0  0  0  0  0  0  0  0  0  0  0
   10.3294   11.9534   26.0835 H    0  0  0  0  0  0  0  0  0  0  0  0
   10.6283   12.3776   24.4092 H    0  0  0  0  0  0  0  0  0  0  0  0
   10.2442    9.8803   24.7869 H    0  0  0  0  0  0  0  0  0  0  0  0
    9.1239   10.5724   23.6183 H    0  0  0  0  0  0  0  0  0  0  0  0
    6.1270    9.3464   26.8000 H    0  0  0  0  0  0  0  0  0  0  0  0
    4.3640   10.8276   27.7093 H    0  0  0  0  0  0  0  0  0  0  0  0
  9 10  1  0  0  0  0
  7  9  1  0  0  0  0
  6  7  1  0  0  0  0
  5  6  1  0  0  0  0
  4  5  1  0  0  0  0
  2  4  1  0  0  0  0
  1  2  2  0  0  0  0
  3  2  1  0  0  0  0
 24  3  1  0  0  0  0
 25  3  1  0  0  0  0
 26  4  1  0  0  0  0
 27  5  1  0  0  0  0
 28  5  1  0  0  0  0
 29  6  1  0  0  0  0
 30  6  1  0  0  0  0
 31  7  1  0  0  0  0
 32  7  1  0  0  0  0
  8  4  1  0  0  0  0
 33  8  1  0  0  0  0
 34  8  1  0  0  0  0
 11 10  2  0  0  0  0
 12 10  1  0  0  0  0
 35 12  1  0  0  0  0
 13 12  1  0  0  0  0
 14 13  2  0  0  0  0
 36 14  1  0  0  0  0
 15 14  1  0  0  0  0
 23 15  2  0  0  0  0
 16 15  1  0  0  0  0
 17 16  1  0  0  0  0
 37 17  1  0  0  0  0
 38 17  1  0  0  0  0
 39 17  1  0  0  0  0
 18 12  1  0  0  0  0
 40 18  1  0  0  0  0
 41 18  1  0  0  0  0
 19 18  1  0  0  0  0
 42 19  1  0  0  0  0
 43 19  1  0  0  0  0
 20 19  1  0  0  0  0
 21 13  1  0  0  0  0
 22 21  2  0  0  0  0
 44 22  1  0  0  0  0
 45 23  1  0  0  0  0
  9  8  1  0  0  0  0
 21 20  1  0  0  0  0
 23 22  1  0  0  0  0
M  END
>  <FittedScore>
-32.19

$$$$
