A71EV2A-x4656a_best-RMSD
  FITTED

 39 40     0  0  0  0  0  0  0999 V2000
   10.8593   10.3226   25.2790 F    0  0  0  0  0  0  0  0  0  0  0  0
    9.9508    9.5052   24.7200 C    0  0  0  0  0  0  0  0  0  0  0  0
   10.5587    8.6681   23.8730 F    0  0  0  0  0  0  0  0  0  0  0  0
    8.6870   10.4012   23.7835 S    0  0  0  0  0  0  0  0  0  0  0  0
    7.4627   10.8536   24.9992 C    0  0  0  0  0  0  0  0  0  0  0  0
    6.7137    9.8331   25.6029 C    0  0  0  0  0  0  0  0  0  0  0  0
    5.7353   10.1387   26.5619 C    0  0  0  0  0  0  0  0  0  0  0  0
    5.5120   11.4689   26.9389 C    0  0  0  0  0  0  0  0  0  0  0  0
    6.2527   12.4977   26.3459 C    0  0  0  0  0  0  0  0  0  0  0  0
    7.2110   12.2004   25.3585 C    0  0  0  0  0  0  0  0  0  0  0  0
    7.8936   13.3088   24.7532 N    0  0  0  0  0  0  0  0  0  0  0  0
    7.9498   13.6551   23.4368 C    0  0  0  0  0  0  0  0  0  0  0  0
    7.2505   13.0786   22.6130 O    0  0  0  0  0  0  0  0  0  0  0  0
    8.7426   14.7417   23.1255 N    0  0  0  0  0  0  0  0  0  0  0  0
    9.6394   15.5043   24.0779 C    0  0  0  0  0  0  0  0  0  0  0  0
   11.0912   15.7467   23.5651 C    0  0  0  0  0  0  0  0  0  0  0  0
   11.1294   16.2820   22.1066 C    0  0  0  0  0  0  0  0  0  0  0  0
    8.8013   15.3252   21.7380 C    0  0  0  0  0  0  0  0  0  0  0  0
   10.2596   15.3809   21.1849 C    0  0  0  0  0  0  0  0  0  0  0  0
   10.3051   15.8499   19.7276 C    0  0  0  0  0  0  0  0  0  0  0  0
    9.8760   16.9264   19.3564 O    0  0  0  0  0  0  0  0  0  0  0  0
   10.7663   14.9507   18.8327 N    0  0  0  0  0  0  0  0  0  0  0  0
    9.4801    8.9149   25.5031 H    0  0  0  0  0  0  0  0  0  0  0  0
    6.8845    8.7931   25.3270 H    0  0  0  0  0  0  0  0  0  0  0  0
    5.1492    9.3392   27.0063 H    0  0  0  0  0  0  0  0  0  0  0  0
    4.7538   11.7035   27.6837 H    0  0  0  0  0  0  0  0  0  0  0  0
    6.0590   13.5313   26.6397 H    0  0  0  0  0  0  0  0  0  0  0  0
    8.3186   13.9193   25.4398 H    0  0  0  0  0  0  0  0  0  0  0  0
    9.1649   16.4617   24.3132 H    0  0  0  0  0  0  0  0  0  0  0  0
    9.7657   14.9987   25.0396 H    0  0  0  0  0  0  0  0  0  0  0  0
   11.5894   16.4593   24.2254 H    0  0  0  0  0  0  0  0  0  0  0  0
   11.6691   14.8177   23.6283 H    0  0  0  0  0  0  0  0  0  0  0  0
   10.7606   17.3138   22.0918 H    0  0  0  0  0  0  0  0  0  0  0  0
   12.1600   16.3149   21.7419 H    0  0  0  0  0  0  0  0  0  0  0  0
    8.3559   16.3266   21.7568 H    0  0  0  0  0  0  0  0  0  0  0  0
    8.1856   14.7715   21.0240 H    0  0  0  0  0  0  0  0  0  0  0  0
   10.6574   14.3613   21.2529 H    0  0  0  0  0  0  0  0  0  0  0  0
   10.9754   14.0020   19.1229 H    0  0  0  0  0  0  0  0  0  0  0  0
   10.7686   15.1795   17.8458 H    0  0  0  0  0  0  0  0  0  0  0  0
 11 12  1  0  0  0  0
 10 11  1  0  0  0  0
  9 10  2  0  0  0  0
  8  9  1  0  0  0  0
  7  8  2  0  0  0  0
  6  7  1  0  0  0  0
  5  6  2  0  0  0  0
  4  5  1  0  0  0  0
  2  4  1  0  0  0  0
  1  2  1  0  0  0  0
 23  2  1  0  0  0  0
  3  2  1  0  0  0  0
 24  6  1  0  0  0  0
 25  7  1  0  0  0  0
 26  8  1  0  0  0  0
 27  9  1  0  0  0  0
 28 11  1  0  0  0  0
 13 12  2  0  0  0  0
 14 12  1  0  0  0  0
 15 14  1  0  0  0  0
 29 15  1  0  0  0  0
 30 15  1  0  0  0  0
 16 15  1  0  0  0  0
 31 16  1  0  0  0  0
 32 16  1  0  0  0  0
 17 16  1  0  0  0  0
 33 17  1  0  0  0  0
 34 17  1  0  0  0  0
 18 14  1  0  0  0  0
 35 18  1  0  0  0  0
 36 18  1  0  0  0  0
 19 17  1  0  0  0  0
 20 19  1  0  0  0  0
 37 19  1  0  0  0  0
 21 20  2  0  0  0  0
 22 20  1  0  0  0  0
 38 22  1  0  0  0  0
 39 22  1  0  0  0  0
 10  5  1  0  0  0  0
 19 18  1  0  0  0  0
M  END
>  <FittedScore>
-30.17

$$$$
