A71EV2A-x4656a_lowest-energy
  FITTED

 39 40     0  0  0  0  0  0  0999 V2000
   10.9844   10.2616   25.3284 F    0  0  0  0  0  0  0  0  0  0  0  0
   10.0160    9.5216   24.7665 C    0  0  0  0  0  0  0  0  0  0  0  0
   10.5830    8.6445   23.9334 F    0  0  0  0  0  0  0  0  0  0  0  0
    8.8240   10.4943   23.8165 S    0  0  0  0  0  0  0  0  0  0  0  0
    7.5675   10.9514   25.0030 C    0  0  0  0  0  0  0  0  0  0  0  0
    6.7971    9.9306   25.5890 C    0  0  0  0  0  0  0  0  0  0  0  0
    5.8290   10.2354   26.5547 C    0  0  0  0  0  0  0  0  0  0  0  0
    5.6193   11.5617   26.9492 C    0  0  0  0  0  0  0  0  0  0  0  0
    6.3649   12.5924   26.3598 C    0  0  0  0  0  0  0  0  0  0  0  0
    7.3214   12.2981   25.3708 C    0  0  0  0  0  0  0  0  0  0  0  0
    8.0018   13.4017   24.7544 N    0  0  0  0  0  0  0  0  0  0  0  0
    8.0292   13.7393   23.4326 C    0  0  0  0  0  0  0  0  0  0  0  0
    7.2894   13.1797   22.6341 O    0  0  0  0  0  0  0  0  0  0  0  0
    8.8521   14.7946   23.0781 N    0  0  0  0  0  0  0  0  0  0  0  0
    9.7438   15.5943   24.0066 C    0  0  0  0  0  0  0  0  0  0  0  0
   11.1910   15.8457   23.4771 C    0  0  0  0  0  0  0  0  0  0  0  0
   11.2071   16.3511   22.0061 C    0  0  0  0  0  0  0  0  0  0  0  0
    8.8880   15.3572   21.6841 C    0  0  0  0  0  0  0  0  0  0  0  0
   10.3346   15.4316   21.1070 C    0  0  0  0  0  0  0  0  0  0  0  0
   10.3717   15.8639   19.6269 C    0  0  0  0  0  0  0  0  0  0  0  0
    9.9722   16.9400   19.2200 O    0  0  0  0  0  0  0  0  0  0  0  0
   10.7476   14.9284   18.7334 N    0  0  0  0  0  0  0  0  0  0  0  0
    9.5023    8.9645   25.5563 H    0  0  0  0  0  0  0  0  0  0  0  0
    6.9467    8.8986   25.2908 H    0  0  0  0  0  0  0  0  0  0  0  0
    5.2384    9.4374   26.9973 H    0  0  0  0  0  0  0  0  0  0  0  0
    4.8751   11.7984   27.7032 H    0  0  0  0  0  0  0  0  0  0  0  0
    6.1779   13.6240   26.6579 H    0  0  0  0  0  0  0  0  0  0  0  0
    8.3805   14.0564   25.4255 H    0  0  0  0  0  0  0  0  0  0  0  0
    9.2579   16.5570   24.1997 H    0  0  0  0  0  0  0  0  0  0  0  0
    9.8579   15.1370   24.9944 H    0  0  0  0  0  0  0  0  0  0  0  0
   11.6871   16.5744   24.1234 H    0  0  0  0  0  0  0  0  0  0  0  0
   11.7710   14.9221   23.5593 H    0  0  0  0  0  0  0  0  0  0  0  0
   10.8426   17.3818   21.9685 H    0  0  0  0  0  0  0  0  0  0  0  0
   12.2380   16.3629   21.6446 H    0  0  0  0  0  0  0  0  0  0  0  0
    8.4374   16.3530   21.6995 H    0  0  0  0  0  0  0  0  0  0  0  0
    8.2743   14.7844   20.9887 H    0  0  0  0  0  0  0  0  0  0  0  0
   10.7488   14.4175   21.1872 H    0  0  0  0  0  0  0  0  0  0  0  0
   10.9453   13.9817   19.0461 H    0  0  0  0  0  0  0  0  0  0  0  0
   10.6891   15.1263   17.7357 H    0  0  0  0  0  0  0  0  0  0  0  0
 11 12  1  0  0  0  0
 10 11  1  0  0  0  0
  9 10  2  0  0  0  0
  8  9  1  0  0  0  0
  7  8  2  0  0  0  0
  6  7  1  0  0  0  0
  5  6  2  0  0  0  0
  4  5  1  0  0  0  0
  2  4  1  0  0  0  0
  1  2  1  0  0  0  0
 23  2  1  0  0  0  0
  3  2  1  0  0  0  0
 24  6  1  0  0  0  0
 25  7  1  0  0  0  0
 26  8  1  0  0  0  0
 27  9  1  0  0  0  0
 28 11  1  0  0  0  0
 13 12  2  0  0  0  0
 14 12  1  0  0  0  0
 15 14  1  0  0  0  0
 29 15  1  0  0  0  0
 30 15  1  0  0  0  0
 16 15  1  0  0  0  0
 31 16  1  0  0  0  0
 32 16  1  0  0  0  0
 17 16  1  0  0  0  0
 33 17  1  0  0  0  0
 34 17  1  0  0  0  0
 18 14  1  0  0  0  0
 35 18  1  0  0  0  0
 36 18  1  0  0  0  0
 19 17  1  0  0  0  0
 20 19  1  0  0  0  0
 37 19  1  0  0  0  0
 21 20  2  0  0  0  0
 22 20  1  0  0  0  0
 38 22  1  0  0  0  0
 39 22  1  0  0  0  0
 10  5  1  0  0  0  0
 19 18  1  0  0  0  0
M  END
>  <FittedScore>
-30.71

$$$$
