A71EV2A-x3585a_best-RMSD
  FITTED

 44 46     0  0  0  0  0  0  0999 V2000
    9.8544   16.8972   19.4122 O    0  0  0  0  0  0  0  0  0  0  0  0
   10.3348   15.8349   19.7659 C    0  0  0  0  0  0  0  0  0  0  0  0
   10.6829   14.8993   18.8580 N    0  0  0  0  0  0  0  0  0  0  0  0
   10.3653   15.3709   21.2177 C    0  0  0  0  0  0  0  0  0  0  0  0
   11.3205   16.2453   22.0829 C    0  0  0  0  0  0  0  0  0  0  0  0
   11.3098   15.7799   23.5670 C    0  0  0  0  0  0  0  0  0  0  0  0
    9.8638   15.5807   24.1145 C    0  0  0  0  0  0  0  0  0  0  0  0
    8.9352   15.3318   21.8408 C    0  0  0  0  0  0  0  0  0  0  0  0
    8.9728   14.7588   23.2205 N    0  0  0  0  0  0  0  0  0  0  0  0
    8.2866   13.6199   23.5685 C    0  0  0  0  0  0  0  0  0  0  0  0
    7.3114   13.2275   22.9453 O    0  0  0  0  0  0  0  0  0  0  0  0
    8.9296   12.8142   24.4613 N    0  0  0  0  0  0  0  0  0  0  0  0
    8.5632   11.4662   24.7691 C    0  0  0  0  0  0  0  0  0  0  0  0
    9.2355   10.3892   24.1637 C    0  0  0  0  0  0  0  0  0  0  0  0
    7.5053   11.1757   25.6370 C    0  0  0  0  0  0  0  0  0  0  0  0
    7.1103    9.8827   25.8886 C    0  0  0  0  0  0  0  0  0  0  0  0
    6.0763    9.9660   26.7706 N    0  0  0  0  0  0  0  0  0  0  0  0
    5.3743    8.8650   27.4459 C    0  0  0  0  0  0  0  0  0  0  0  0
    5.8034   11.2695   27.0888 N    0  0  0  0  0  0  0  0  0  0  0  0
    6.6097   12.0395   26.4241 C    0  0  0  0  0  0  0  0  0  0  0  0
    7.7319    8.7944   25.2693 C    0  0  0  0  0  0  0  0  0  0  0  0
    8.8161    9.0581   24.4035 C    0  0  0  0  0  0  0  0  0  0  0  0
    9.4958    7.9114   23.6863 C    0  0  0  0  0  0  0  0  0  0  0  0
   10.6418   15.1256   17.8741 H    0  0  0  0  0  0  0  0  0  0  0  0
   10.8639   13.9311   19.1327 H    0  0  0  0  0  0  0  0  0  0  0  0
   10.7524   14.3425   21.2607 H    0  0  0  0  0  0  0  0  0  0  0  0
   12.3384   16.1774   21.6912 H    0  0  0  0  0  0  0  0  0  0  0  0
   11.0296   17.2987   22.0277 H    0  0  0  0  0  0  0  0  0  0  0  0
   11.8645   14.8428   23.6581 H    0  0  0  0  0  0  0  0  0  0  0  0
   11.8316   16.5162   24.1824 H    0  0  0  0  0  0  0  0  0  0  0  0
    9.9250   15.1699   25.1254 H    0  0  0  0  0  0  0  0  0  0  0  0
    9.4017   16.5655   24.2446 H    0  0  0  0  0  0  0  0  0  0  0  0
    8.2901   14.7592   21.1680 H    0  0  0  0  0  0  0  0  0  0  0  0
    8.4980   16.3354   21.8769 H    0  0  0  0  0  0  0  0  0  0  0  0
    9.8648   13.0716   24.7668 H    0  0  0  0  0  0  0  0  0  0  0  0
   10.0589   10.5921   23.4785 H    0  0  0  0  0  0  0  0  0  0  0  0
    4.5791    9.2214   28.1079 H    0  0  0  0  0  0  0  0  0  0  0  0
    6.0604    8.2806   28.0679 H    0  0  0  0  0  0  0  0  0  0  0  0
    4.9135    8.1872   26.7239 H    0  0  0  0  0  0  0  0  0  0  0  0
    6.5975   13.1231   26.4673 H    0  0  0  0  0  0  0  0  0  0  0  0
    7.4000    7.7760   25.4575 H    0  0  0  0  0  0  0  0  0  0  0  0
    8.9892    7.7003   22.7409 H    0  0  0  0  0  0  0  0  0  0  0  0
    9.4891    7.0019   24.2897 H    0  0  0  0  0  0  0  0  0  0  0  0
   10.5378    8.1544   23.4645 H    0  0  0  0  0  0  0  0  0  0  0  0
 10 12  1  0  0  0  0
  9 10  1  0  0  0  0
  7  9  1  0  0  0  0
  6  7  1  0  0  0  0
  5  6  1  0  0  0  0
  4  5  1  0  0  0  0
  2  4  1  0  0  0  0
  1  2  2  0  0  0  0
  3  2  1  0  0  0  0
 24  3  1  0  0  0  0
 25  3  1  0  0  0  0
 26  4  1  0  0  0  0
 27  5  1  0  0  0  0
 28  5  1  0  0  0  0
 29  6  1  0  0  0  0
 30  6  1  0  0  0  0
 31  7  1  0  0  0  0
 32  7  1  0  0  0  0
  8  4  1  0  0  0  0
 33  8  1  0  0  0  0
 34  8  1  0  0  0  0
 11 10  2  0  0  0  0
 35 12  1  0  0  0  0
 13 12  1  0  0  0  0
 14 13  1  0  0  0  0
 36 14  1  0  0  0  0
 15 13  2  0  0  0  0
 20 15  1  0  0  0  0
 16 15  1  0  0  0  0
 17 16  1  0  0  0  0
 18 17  1  0  0  0  0
 37 18  1  0  0  0  0
 38 18  1  0  0  0  0
 39 18  1  0  0  0  0
 19 17  1  0  0  0  0
 40 20  1  0  0  0  0
 21 16  2  0  0  0  0
 41 21  1  0  0  0  0
 22 14  2  0  0  0  0
 23 22  1  0  0  0  0
 42 23  1  0  0  0  0
 43 23  1  0  0  0  0
 44 23  1  0  0  0  0
  9  8  1  0  0  0  0
 20 19  2  0  0  0  0
 22 21  1  0  0  0  0
M  END
>  <FittedScore>
-37.53

$$$$
