A71EV2A-x4669b_best-RMSD
  FITTED

 42 44     0  0  0  0  0  0  0999 V2000
    9.2582    9.7565   24.5626 CL   0  0  0  0  0  0  0  0  0  0  0  0
    8.0058   10.5809   25.4587 C    0  0  0  0  0  0  0  0  0  0  0  0
    6.9923    9.7987   26.0299 C    0  0  0  0  0  0  0  0  0  0  0  0
    5.9718   10.3800   26.7974 C    0  0  0  0  0  0  0  0  0  0  0  0
    4.9924    9.5953   27.3942 O    0  0  0  0  0  0  0  0  0  0  0  0
    4.1631   10.1230   28.4776 C    0  0  0  0  0  0  0  0  0  0  0  0
    3.7640   11.5932   28.1757 C    0  0  0  0  0  0  0  0  0  0  0  0
    4.9458   12.3496   27.7662 O    0  0  0  0  0  0  0  0  0  0  0  0
    5.9332   11.7714   26.9741 C    0  0  0  0  0  0  0  0  0  0  0  0
    6.9171   12.5687   26.3868 C    0  0  0  0  0  0  0  0  0  0  0  0
    7.9594   11.9856   25.6388 C    0  0  0  0  0  0  0  0  0  0  0  0
    8.9974   12.9339   25.0538 C    0  0  0  0  0  0  0  0  0  0  0  0
    8.5509   13.5991   23.7391 C    0  0  0  0  0  0  0  0  0  0  0  0
    7.6950   13.0621   23.0499 O    0  0  0  0  0  0  0  0  0  0  0  0
    9.1910   14.7461   23.3097 N    0  0  0  0  0  0  0  0  0  0  0  0
   10.3087   15.4924   24.0028 C    0  0  0  0  0  0  0  0  0  0  0  0
   11.6498   15.4303   23.2250 C    0  0  0  0  0  0  0  0  0  0  0  0
   11.4888   15.9011   21.7584 C    0  0  0  0  0  0  0  0  0  0  0  0
    8.9817   15.3426   21.9477 C    0  0  0  0  0  0  0  0  0  0  0  0
   10.2723   15.1980   21.0809 C    0  0  0  0  0  0  0  0  0  0  0  0
   10.1448   15.6676   19.6340 C    0  0  0  0  0  0  0  0  0  0  0  0
    9.6822   16.7490   19.3037 O    0  0  0  0  0  0  0  0  0  0  0  0
   10.6739   14.8234   18.7268 N    0  0  0  0  0  0  0  0  0  0  0  0
    7.0029    8.7199   25.8881 H    0  0  0  0  0  0  0  0  0  0  0  0
    4.7432   10.0779   29.4031 H    0  0  0  0  0  0  0  0  0  0  0  0
    3.2793    9.4902   28.6036 H    0  0  0  0  0  0  0  0  0  0  0  0
    3.3379   12.0667   29.0634 H    0  0  0  0  0  0  0  0  0  0  0  0
    3.0126   11.6321   27.3809 H    0  0  0  0  0  0  0  0  0  0  0  0
    6.8668   13.6464   26.5262 H    0  0  0  0  0  0  0  0  0  0  0  0
    9.1698   13.6749   25.8344 H    0  0  0  0  0  0  0  0  0  0  0  0
    9.9624   12.4440   24.9163 H    0  0  0  0  0  0  0  0  0  0  0  0
   10.0161   16.5393   24.1246 H    0  0  0  0  0  0  0  0  0  0  0  0
   10.5218   15.1536   25.0122 H    0  0  0  0  0  0  0  0  0  0  0  0
   12.4062   16.0490   23.7241 H    0  0  0  0  0  0  0  0  0  0  0  0
   12.0263   14.4003   23.2365 H    0  0  0  0  0  0  0  0  0  0  0  0
   11.3541   16.9880   21.7391 H    0  0  0  0  0  0  0  0  0  0  0  0
   12.4020   15.6842   21.2021 H    0  0  0  0  0  0  0  0  0  0  0  0
    8.7084   16.3956   22.0401 H    0  0  0  0  0  0  0  0  0  0  0  0
    8.1451   14.9006   21.4053 H    0  0  0  0  0  0  0  0  0  0  0  0
   10.4821   14.1219   21.0781 H    0  0  0  0  0  0  0  0  0  0  0  0
   10.8050   15.1097   17.7642 H    0  0  0  0  0  0  0  0  0  0  0  0
   10.9855   13.8953   19.0090 H    0  0  0  0  0  0  0  0  0  0  0  0
 12 13  1  0  0  0  0
 11 12  1  0  0  0  0
 10 11  2  0  0  0  0
  9 10  1  0  0  0  0
  4  9  2  0  0  0  0
  3  4  1  0  0  0  0
  2  3  2  0  0  0  0
  1  2  1  0  0  0  0
 24  3  1  0  0  0  0
  5  4  1  0  0  0  0
  6  5  1  0  0  0  0
 25  6  1  0  0  0  0
 26  6  1  0  0  0  0
  7  6  1  0  0  0  0
 27  7  1  0  0  0  0
 28  7  1  0  0  0  0
  8  7  1  0  0  0  0
 29 10  1  0  0  0  0
 30 12  1  0  0  0  0
 31 12  1  0  0  0  0
 14 13  2  0  0  0  0
 15 13  1  0  0  0  0
 16 15  1  0  0  0  0
 32 16  1  0  0  0  0
 33 16  1  0  0  0  0
 17 16  1  0  0  0  0
 34 17  1  0  0  0  0
 35 17  1  0  0  0  0
 18 17  1  0  0  0  0
 36 18  1  0  0  0  0
 37 18  1  0  0  0  0
 19 15  1  0  0  0  0
 38 19  1  0  0  0  0
 39 19  1  0  0  0  0
 20 18  1  0  0  0  0
 21 20  1  0  0  0  0
 40 20  1  0  0  0  0
 22 21  2  0  0  0  0
 23 21  1  0  0  0  0
 41 23  1  0  0  0  0
 42 23  1  0  0  0  0
  9  8  1  0  0  0  0
 11  2  1  0  0  0  0
 20 19  1  0  0  0  0
M  END
>  <FittedScore>
-32.13

$$$$
