A71EV2A-x7101a_lowest-energy
  FITTED

 63 66     0  0  0  0  0  0  0999 V2000
    9.5484    8.4878   23.4034 C    0  0  0  0  0  0  0  0  0  0  0  0
    9.4989   10.2484   23.8452 S    0  0  0  0  0  0  0  0  0  0  0  0
    8.0905   10.4615   24.9267 C    0  0  0  0  0  0  0  0  0  0  0  0
    7.3613    9.3541   25.2332 N    0  0  0  0  0  0  0  0  0  0  0  0
    6.3192    9.4869   26.0915 C    0  0  0  0  0  0  0  0  0  0  0  0
    5.9322   10.6543   26.6527 N    0  0  0  0  0  0  0  0  0  0  0  0
    6.6093   11.7896   26.3219 C    0  0  0  0  0  0  0  0  0  0  0  0
    6.0993   12.9710   26.8244 N    0  0  0  0  0  0  0  0  0  0  0  0
    5.8133   13.2213   28.2448 C    0  0  0  0  0  0  0  0  0  0  0  0
    4.8636   14.4348   28.2532 C    0  0  0  0  0  0  0  0  0  0  0  0
    4.2562   14.5161   26.8185 C    0  0  0  0  0  0  0  0  0  0  0  0
    2.9241   13.6678   26.7333 C    0  0  0  0  0  0  0  0  0  0  0  0
    2.1842   13.7821   25.3694 C    0  0  0  0  0  0  0  0  0  0  0  0
    2.0075   15.2490   24.8892 C    0  0  0  0  0  0  0  0  0  0  0  0
    3.3033   16.0957   25.0056 C    0  0  0  0  0  0  0  0  0  0  0  0
    3.9611   16.0002   26.4072 C    0  0  0  0  0  0  0  0  0  0  0  0
    5.3995   13.9095   25.9489 C    0  0  0  0  0  0  0  0  0  0  0  0
    7.7404   11.7386   25.4501 C    0  0  0  0  0  0  0  0  0  0  0  0
    8.5289   13.0092   25.0570 C    0  0  0  0  0  0  0  0  0  0  0  0
    8.1445   13.6009   23.6859 C    0  0  0  0  0  0  0  0  0  0  0  0
    7.3462   13.0152   22.9729 O    0  0  0  0  0  0  0  0  0  0  0  0
    8.8191   14.7084   23.2129 N    0  0  0  0  0  0  0  0  0  0  0  0
    9.7920   15.5499   23.9891 C    0  0  0  0  0  0  0  0  0  0  0  0
   11.2446   15.3757   23.4696 C    0  0  0  0  0  0  0  0  0  0  0  0
   11.3450   15.7423   21.9650 C    0  0  0  0  0  0  0  0  0  0  0  0
   10.2322   15.0375   21.1281 C    0  0  0  0  0  0  0  0  0  0  0  0
   10.2585   15.5063   19.6779 C    0  0  0  0  0  0  0  0  0  0  0  0
   10.7824   14.6424   18.7928 N    0  0  0  0  0  0  0  0  0  0  0  0
    9.8616   16.5900   19.3035 O    0  0  0  0  0  0  0  0  0  0  0  0
    8.8125   15.1449   21.7751 C    0  0  0  0  0  0  0  0  0  0  0  0
   10.4210    8.2897   22.7755 H    0  0  0  0  0  0  0  0  0  0  0  0
    8.6443    8.2182   22.8512 H    0  0  0  0  0  0  0  0  0  0  0  0
    9.6200    7.8755   24.3035 H    0  0  0  0  0  0  0  0  0  0  0  0
    5.7543    8.5916   26.3479 H    0  0  0  0  0  0  0  0  0  0  0  0
    6.7296   13.4431   28.7979 H    0  0  0  0  0  0  0  0  0  0  0  0
    5.3240   12.3757   28.7367 H    0  0  0  0  0  0  0  0  0  0  0  0
    5.4383   15.3366   28.4916 H    0  0  0  0  0  0  0  0  0  0  0  0
    4.1009   14.3341   29.0344 H    0  0  0  0  0  0  0  0  0  0  0  0
    2.2322   14.0012   27.5133 H    0  0  0  0  0  0  0  0  0  0  0  0
    3.1177   12.6117   26.9413 H    0  0  0  0  0  0  0  0  0  0  0  0
    1.1970   13.3221   25.4622 H    0  0  0  0  0  0  0  0  0  0  0  0
    2.7114   13.2038   24.6061 H    0  0  0  0  0  0  0  0  0  0  0  0
    1.2031   15.7327   25.4561 H    0  0  0  0  0  0  0  0  0  0  0  0
    1.6888   15.2396   23.8437 H    0  0  0  0  0  0  0  0  0  0  0  0
    3.0691   17.1411   24.7931 H    0  0  0  0  0  0  0  0  0  0  0  0
    4.0141   15.7891   24.2330 H    0  0  0  0  0  0  0  0  0  0  0  0
    3.3006   16.4683   27.1427 H    0  0  0  0  0  0  0  0  0  0  0  0
    4.8806   16.5939   26.4062 H    0  0  0  0  0  0  0  0  0  0  0  0
    6.0908   14.6853   25.6082 H    0  0  0  0  0  0  0  0  0  0  0  0
    5.0263   13.4253   25.0426 H    0  0  0  0  0  0  0  0  0  0  0  0
    9.6022   12.8016   25.0721 H    0  0  0  0  0  0  0  0  0  0  0  0
    8.4033   13.7658   25.8315 H    0  0  0  0  0  0  0  0  0  0  0  0
    9.7825   15.3638   25.0604 H    0  0  0  0  0  0  0  0  0  0  0  0
    9.5065   16.6034   23.9008 H    0  0  0  0  0  0  0  0  0  0  0  0
   11.5716   14.3421   23.6239 H    0  0  0  0  0  0  0  0  0  0  0  0
   11.9225   16.0079   24.0489 H    0  0  0  0  0  0  0  0  0  0  0  0
   12.3247   15.4286   21.5955 H    0  0  0  0  0  0  0  0  0  0  0  0
   11.2892   16.8289   21.8454 H    0  0  0  0  0  0  0  0  0  0  0  0
   10.4747   13.9654   21.1496 H    0  0  0  0  0  0  0  0  0  0  0  0
   10.8315   14.8833   17.8103 H    0  0  0  0  0  0  0  0  0  0  0  0
   11.0228   13.6963   19.0936 H    0  0  0  0  0  0  0  0  0  0  0  0
    8.1258   14.5538   21.1607 H    0  0  0  0  0  0  0  0  0  0  0  0
    8.4415   16.1744   21.7113 H    0  0  0  0  0  0  0  0  0  0  0  0
 18 19  1  0  0  0  0
  7 18  2  0  0  0  0
  6  7  1  0  0  0  0
  5  6  2  0  0  0  0
  4  5  1  0  0  0  0
  3  4  2  0  0  0  0
  2  3  1  0  0  0  0
  1  2  1  0  0  0  0
 31  1  1  0  0  0  0
 32  1  1  0  0  0  0
 33  1  1  0  0  0  0
 34  5  1  0  0  0  0
  8  7  1  0  0  0  0
  9  8  1  0  0  0  0
 10  9  1  0  0  0  0
 35  9  1  0  0  0  0
 36  9  1  0  0  0  0
 11 10  1  0  0  0  0
 37 10  1  0  0  0  0
 38 10  1  0  0  0  0
 12 11  1  0  0  0  0
 17 11  1  0  0  0  0
 13 12  1  0  0  0  0
 39 12  1  0  0  0  0
 40 12  1  0  0  0  0
 14 13  1  0  0  0  0
 41 13  1  0  0  0  0
 42 13  1  0  0  0  0
 15 14  1  0  0  0  0
 43 14  1  0  0  0  0
 44 14  1  0  0  0  0
 16 15  1  0  0  0  0
 45 15  1  0  0  0  0
 46 15  1  0  0  0  0
 47 16  1  0  0  0  0
 48 16  1  0  0  0  0
 49 17  1  0  0  0  0
 50 17  1  0  0  0  0
 20 19  1  0  0  0  0
 51 19  1  0  0  0  0
 52 19  1  0  0  0  0
 21 20  2  0  0  0  0
 22 20  1  0  0  0  0
 23 22  1  0  0  0  0
 24 23  1  0  0  0  0
 53 23  1  0  0  0  0
 54 23  1  0  0  0  0
 25 24  1  0  0  0  0
 55 24  1  0  0  0  0
 56 24  1  0  0  0  0
 26 25  1  0  0  0  0
 57 25  1  0  0  0  0
 58 25  1  0  0  0  0
 27 26  1  0  0  0  0
 30 26  1  0  0  0  0
 59 26  1  0  0  0  0
 28 27  1  0  0  0  0
 29 27  2  0  0  0  0
 60 28  1  0  0  0  0
 61 28  1  0  0  0  0
 62 30  1  0  0  0  0
 63 30  1  0  0  0  0
 16 11  1  0  0  0  0
 17  8  1  0  0  0  0
 18  3  1  0  0  0  0
 30 22  1  0  0  0  0
M  END
>  <FittedScore>
-33.30

$$$$
