A71EV2A-x7101a_best-RMSD
  FITTED

 63 66     0  0  0  0  0  0  0999 V2000
    9.2586    8.8339   23.5757 C    0  0  0  0  0  0  0  0  0  0  0  0
    9.3214   10.6152   23.9438 S    0  0  0  0  0  0  0  0  0  0  0  0
    7.8380   11.0206   24.8682 C    0  0  0  0  0  0  0  0  0  0  0  0
    7.3615   10.0848   25.7341 N    0  0  0  0  0  0  0  0  0  0  0  0
    6.3104   10.4170   26.5193 C    0  0  0  0  0  0  0  0  0  0  0  0
    5.6866   11.6241   26.5123 N    0  0  0  0  0  0  0  0  0  0  0  0
    6.1070   12.5714   25.6199 C    0  0  0  0  0  0  0  0  0  0  0  0
    5.3837   13.7622   25.5986 N    0  0  0  0  0  0  0  0  0  0  0  0
    5.9356   15.0890   25.9336 C    0  0  0  0  0  0  0  0  0  0  0  0
    4.7336   16.0510   25.9506 C    0  0  0  0  0  0  0  0  0  0  0  0
    3.4745   15.1601   26.1526 C    0  0  0  0  0  0  0  0  0  0  0  0
    3.1856   14.9850   27.6955 C    0  0  0  0  0  0  0  0  0  0  0  0
    1.8411   14.2749   28.0190 C    0  0  0  0  0  0  0  0  0  0  0  0
    0.6361   14.8853   27.2516 C    0  0  0  0  0  0  0  0  0  0  0  0
    0.9010   15.0271   25.7291 C    0  0  0  0  0  0  0  0  0  0  0  0
    2.2231   15.7868   25.4357 C    0  0  0  0  0  0  0  0  0  0  0  0
    3.9152   13.8170   25.4914 C    0  0  0  0  0  0  0  0  0  0  0  0
    7.2047   12.2906   24.7454 C    0  0  0  0  0  0  0  0  0  0  0  0
    7.7311   13.3047   23.7109 C    0  0  0  0  0  0  0  0  0  0  0  0
    8.9013   14.1478   24.2284 C    0  0  0  0  0  0  0  0  0  0  0  0
    9.1503   14.1441   25.4218 O    0  0  0  0  0  0  0  0  0  0  0  0
    9.5950   14.9542   23.3537 N    0  0  0  0  0  0  0  0  0  0  0  0
   10.7016   15.8546   23.8214 C    0  0  0  0  0  0  0  0  0  0  0  0
   11.9283   15.9092   22.8823 C    0  0  0  0  0  0  0  0  0  0  0  0
   11.5629   16.1594   21.4134 C    0  0  0  0  0  0  0  0  0  0  0  0
   10.5349   15.0950   20.9833 C    0  0  0  0  0  0  0  0  0  0  0  0
   10.2769   15.1682   19.4899 C    0  0  0  0  0  0  0  0  0  0  0  0
    9.4314   16.0991   19.0304 N    0  0  0  0  0  0  0  0  0  0  0  0
   10.9529   14.5566   18.6979 O    0  0  0  0  0  0  0  0  0  0  0  0
    9.2727   15.1798   21.8998 C    0  0  0  0  0  0  0  0  0  0  0  0
    9.2543    8.2545   24.5027 H    0  0  0  0  0  0  0  0  0  0  0  0
   10.1405    8.5473   22.9968 H    0  0  0  0  0  0  0  0  0  0  0  0
    8.3553    8.6165   23.0029 H    0  0  0  0  0  0  0  0  0  0  0  0
    5.9454    9.6645   27.2156 H    0  0  0  0  0  0  0  0  0  0  0  0
    6.6503   15.4678   25.2051 H    0  0  0  0  0  0  0  0  0  0  0  0
    6.4379   15.0824   26.9052 H    0  0  0  0  0  0  0  0  0  0  0  0
    4.6846   16.5914   24.9991 H    0  0  0  0  0  0  0  0  0  0  0  0
    4.8522   16.8095   26.7289 H    0  0  0  0  0  0  0  0  0  0  0  0
    3.1707   15.9654   28.1812 H    0  0  0  0  0  0  0  0  0  0  0  0
    3.9946   14.4280   28.1781 H    0  0  0  0  0  0  0  0  0  0  0  0
    1.6529   14.3557   29.0928 H    0  0  0  0  0  0  0  0  0  0  0  0
    1.9154   13.2063   27.8031 H    0  0  0  0  0  0  0  0  0  0  0  0
    0.3949   15.8660   27.6724 H    0  0  0  0  0  0  0  0  0  0  0  0
   -0.2413   14.2526   27.4047 H    0  0  0  0  0  0  0  0  0  0  0  0
    0.0692   15.5645   25.2670 H    0  0  0  0  0  0  0  0  0  0  0  0
    0.9262   14.0374   25.2639 H    0  0  0  0  0  0  0  0  0  0  0  0
    2.1039   16.8293   25.7487 H    0  0  0  0  0  0  0  0  0  0  0  0
    2.3661   15.8206   24.3516 H    0  0  0  0  0  0  0  0  0  0  0  0
    3.6414   13.7837   24.4328 H    0  0  0  0  0  0  0  0  0  0  0  0
    3.4100   12.9608   25.9438 H    0  0  0  0  0  0  0  0  0  0  0  0
    6.9302   13.9677   23.3757 H    0  0  0  0  0  0  0  0  0  0  0  0
    8.0103   12.7688   22.8012 H    0  0  0  0  0  0  0  0  0  0  0  0
   11.0973   15.5468   24.7907 H    0  0  0  0  0  0  0  0  0  0  0  0
   10.3069   16.8650   23.9682 H    0  0  0  0  0  0  0  0  0  0  0  0
   12.4995   14.9800   22.9760 H    0  0  0  0  0  0  0  0  0  0  0  0
   12.5903   16.7110   23.2207 H    0  0  0  0  0  0  0  0  0  0  0  0
   12.4629   16.1044   20.7963 H    0  0  0  0  0  0  0  0  0  0  0  0
   11.1588   17.1703   21.2969 H    0  0  0  0  0  0  0  0  0  0  0  0
   10.9781   14.1044   21.1463 H    0  0  0  0  0  0  0  0  0  0  0  0
    9.0338   16.7952   19.6490 H    0  0  0  0  0  0  0  0  0  0  0  0
    9.2957   16.1655   18.0288 H    0  0  0  0  0  0  0  0  0  0  0  0
    8.5297   14.4954   21.4971 H    0  0  0  0  0  0  0  0  0  0  0  0
    8.8218   16.1756   21.8121 H    0  0  0  0  0  0  0  0  0  0  0  0
 18 19  1  0  0  0  0
  7 18  2  0  0  0  0
  6  7  1  0  0  0  0
  5  6  2  0  0  0  0
  4  5  1  0  0  0  0
  3  4  2  0  0  0  0
  2  3  1  0  0  0  0
  1  2  1  0  0  0  0
 31  1  1  0  0  0  0
 32  1  1  0  0  0  0
 33  1  1  0  0  0  0
 34  5  1  0  0  0  0
  8  7  1  0  0  0  0
  9  8  1  0  0  0  0
 10  9  1  0  0  0  0
 35  9  1  0  0  0  0
 36  9  1  0  0  0  0
 11 10  1  0  0  0  0
 37 10  1  0  0  0  0
 38 10  1  0  0  0  0
 12 11  1  0  0  0  0
 17 11  1  0  0  0  0
 13 12  1  0  0  0  0
 39 12  1  0  0  0  0
 40 12  1  0  0  0  0
 14 13  1  0  0  0  0
 41 13  1  0  0  0  0
 42 13  1  0  0  0  0
 15 14  1  0  0  0  0
 43 14  1  0  0  0  0
 44 14  1  0  0  0  0
 16 15  1  0  0  0  0
 45 15  1  0  0  0  0
 46 15  1  0  0  0  0
 47 16  1  0  0  0  0
 48 16  1  0  0  0  0
 49 17  1  0  0  0  0
 50 17  1  0  0  0  0
 20 19  1  0  0  0  0
 51 19  1  0  0  0  0
 52 19  1  0  0  0  0
 21 20  2  0  0  0  0
 22 20  1  0  0  0  0
 23 22  1  0  0  0  0
 24 23  1  0  0  0  0
 53 23  1  0  0  0  0
 54 23  1  0  0  0  0
 25 24  1  0  0  0  0
 55 24  1  0  0  0  0
 56 24  1  0  0  0  0
 26 25  1  0  0  0  0
 57 25  1  0  0  0  0
 58 25  1  0  0  0  0
 27 26  1  0  0  0  0
 30 26  1  0  0  0  0
 59 26  1  0  0  0  0
 28 27  1  0  0  0  0
 29 27  2  0  0  0  0
 60 28  1  0  0  0  0
 61 28  1  0  0  0  0
 62 30  1  0  0  0  0
 63 30  1  0  0  0  0
 16 11  1  0  0  0  0
 17  8  1  0  0  0  0
 18  3  1  0  0  0  0
 30 22  1  0  0  0  0
M  END
>  <FittedScore>
-18.59

$$$$
