A71EV2A-x5758b_lowest-energy
  FITTED

 44 46     0  0  0  0  0  0  0999 V2000
    9.4403    8.4837   23.3576 C    0  0  0  0  0  0  0  0  0  0  0  0
    9.4393   10.1691   24.0304 S    0  0  0  0  0  0  0  0  0  0  0  0
    7.9959   10.4015   25.0810 C    0  0  0  0  0  0  0  0  0  0  0  0
    7.1779    9.3144   25.4521 C    0  0  0  0  0  0  0  0  0  0  0  0
    6.0605    9.4997   26.2776 C    0  0  0  0  0  0  0  0  0  0  0  0
    5.7319   10.7820   26.7278 C    0  0  0  0  0  0  0  0  0  0  0  0
    4.1897   11.0464   27.8127 BR   0  0  0  0  0  0  0  0  0  0  0  0
    6.5347   11.8737   26.3782 C    0  0  0  0  0  0  0  0  0  0  0  0
    7.6699   11.6921   25.5631 C    0  0  0  0  0  0  0  0  0  0  0  0
    8.4996   12.9347   25.2154 C    0  0  0  0  0  0  0  0  0  0  0  0
    8.2780   13.4675   23.7914 C    0  0  0  0  0  0  0  0  0  0  0  0
    7.3673   13.0439   23.1024 O    0  0  0  0  0  0  0  0  0  0  0  0
    9.0696   14.5004   23.3529 N    0  0  0  0  0  0  0  0  0  0  0  0
   10.0716   15.2994   24.1099 C    0  0  0  0  0  0  0  0  0  0  0  0
   11.5009   15.1089   23.4934 C    0  0  0  0  0  0  0  0  0  0  0  0
   11.5533   15.4327   21.9661 C    0  0  0  0  0  0  0  0  0  0  0  0
   10.2373   15.0114   21.2217 C    0  0  0  0  0  0  0  0  0  0  0  0
   10.2219   15.5546   19.7899 C    0  0  0  0  0  0  0  0  0  0  0  0
   10.7050   14.7160   18.8581 N    0  0  0  0  0  0  0  0  0  0  0  0
    9.8719   16.6708   19.4594 O    0  0  0  0  0  0  0  0  0  0  0  0
    8.9356   15.2629   22.0807 C    0  0  0  0  0  0  0  0  0  0  0  0
    8.7727   16.7200   22.5955 C    0  0  0  0  0  0  0  0  0  0  0  0
    9.5316   16.7383   23.9435 C    0  0  0  0  0  0  0  0  0  0  0  0
    9.4948    7.7399   24.1546 H    0  0  0  0  0  0  0  0  0  0  0  0
    8.5479    8.3222   22.7509 H    0  0  0  0  0  0  0  0  0  0  0  0
   10.3215    8.3663   22.7271 H    0  0  0  0  0  0  0  0  0  0  0  0
    7.3928    8.3070   25.1228 H    0  0  0  0  0  0  0  0  0  0  0  0
    5.4561    8.6395   26.5545 H    0  0  0  0  0  0  0  0  0  0  0  0
    6.2734   12.8681   26.7336 H    0  0  0  0  0  0  0  0  0  0  0  0
    9.5553   12.7088   25.3836 H    0  0  0  0  0  0  0  0  0  0  0  0
    8.2702   13.7368   25.9224 H    0  0  0  0  0  0  0  0  0  0  0  0
   10.1199   15.0642   25.1747 H    0  0  0  0  0  0  0  0  0  0  0  0
   11.8166   14.0727   23.6516 H    0  0  0  0  0  0  0  0  0  0  0  0
   12.2211   15.7350   24.0248 H    0  0  0  0  0  0  0  0  0  0  0  0
   12.3999   14.9065   21.5187 H    0  0  0  0  0  0  0  0  0  0  0  0
   11.7473   16.5019   21.8237 H    0  0  0  0  0  0  0  0  0  0  0  0
   10.2862   13.9206   21.1315 H    0  0  0  0  0  0  0  0  0  0  0  0
   10.7234   15.0034   17.8806 H    0  0  0  0  0  0  0  0  0  0  0  0
   10.9217   13.7551   19.1040 H    0  0  0  0  0  0  0  0  0  0  0  0
    8.0502   14.9617   21.5114 H    0  0  0  0  0  0  0  0  0  0  0  0
    7.7151   16.9540   22.7498 H    0  0  0  0  0  0  0  0  0  0  0  0
    9.1730   17.4679   21.9081 H    0  0  0  0  0  0  0  0  0  0  0  0
    8.8420   16.9778   24.7565 H    0  0  0  0  0  0  0  0  0  0  0  0
   10.3266   17.4918   23.9519 H    0  0  0  0  0  0  0  0  0  0  0  0
 10 11  1  0  0  0  0
  9 10  1  0  0  0  0
  8  9  2  0  0  0  0
  6  8  1  0  0  0  0
  5  6  2  0  0  0  0
  4  5  1  0  0  0  0
  3  4  2  0  0  0  0
  2  3  1  0  0  0  0
  1  2  1  0  0  0  0
 24  1  1  0  0  0  0
 25  1  1  0  0  0  0
 26  1  1  0  0  0  0
 27  4  1  0  0  0  0
 28  5  1  0  0  0  0
  7  6  1  0  0  0  0
 29  8  1  0  0  0  0
 30 10  1  0  0  0  0
 31 10  1  0  0  0  0
 12 11  2  0  0  0  0
 13 11  1  0  0  0  0
 14 13  1  0  0  0  0
 15 14  1  0  0  0  0
 32 14  1  0  0  0  0
 16 15  1  0  0  0  0
 33 15  1  0  0  0  0
 34 15  1  0  0  0  0
 17 16  1  0  0  0  0
 35 16  1  0  0  0  0
 36 16  1  0  0  0  0
 18 17  1  0  0  0  0
 21 17  1  0  0  0  0
 37 17  1  0  0  0  0
 19 18  1  0  0  0  0
 20 18  2  0  0  0  0
 38 19  1  0  0  0  0
 39 19  1  0  0  0  0
 22 21  1  0  0  0  0
 40 21  1  0  0  0  0
 23 22  1  0  0  0  0
 41 22  1  0  0  0  0
 42 22  1  0  0  0  0
 43 23  1  0  0  0  0
 44 23  1  0  0  0  0
  9  3  1  0  0  0  0
 21 13  1  0  0  0  0
 23 14  1  0  0  0  0
M  END
>  <FittedScore>
-34.48

$$$$
