A71EV2A-x5758b_best-RMSD
  FITTED

 44 46     0  0  0  0  0  0  0999 V2000
    9.6811    8.3787   23.4569 C    0  0  0  0  0  0  0  0  0  0  0  0
    9.5654   10.1231   23.9497 S    0  0  0  0  0  0  0  0  0  0  0  0
    8.1265   10.3594   25.0033 C    0  0  0  0  0  0  0  0  0  0  0  0
    7.2711    9.2875   25.3316 C    0  0  0  0  0  0  0  0  0  0  0  0
    6.1508    9.4751   26.1524 C    0  0  0  0  0  0  0  0  0  0  0  0
    5.8642   10.7506   26.6540 C    0  0  0  0  0  0  0  0  0  0  0  0
    4.3482   11.0286   27.7704 BR   0  0  0  0  0  0  0  0  0  0  0  0
    6.6941   11.8332   26.3354 C    0  0  0  0  0  0  0  0  0  0  0  0
    7.8238   11.6508   25.5175 C    0  0  0  0  0  0  0  0  0  0  0  0
    8.6537   12.8946   25.1786 C    0  0  0  0  0  0  0  0  0  0  0  0
    8.3517   13.4949   23.8013 C    0  0  0  0  0  0  0  0  0  0  0  0
    7.4503   13.0545   23.1058 O    0  0  0  0  0  0  0  0  0  0  0  0
    9.1020   14.5608   23.3859 N    0  0  0  0  0  0  0  0  0  0  0  0
   10.1396   15.3355   24.1251 C    0  0  0  0  0  0  0  0  0  0  0  0
   11.5447   15.1492   23.4514 C    0  0  0  0  0  0  0  0  0  0  0  0
   11.5441   15.4878   21.9247 C    0  0  0  0  0  0  0  0  0  0  0  0
   10.2017   15.0589   21.2358 C    0  0  0  0  0  0  0  0  0  0  0  0
   10.1281   15.5952   19.8052 C    0  0  0  0  0  0  0  0  0  0  0  0
   10.5723   14.7361   18.8697 N    0  0  0  0  0  0  0  0  0  0  0  0
    9.7383   16.7015   19.4734 O    0  0  0  0  0  0  0  0  0  0  0  0
    8.9396   15.3372   22.1361 C    0  0  0  0  0  0  0  0  0  0  0  0
    8.8324   16.7946   22.6630 C    0  0  0  0  0  0  0  0  0  0  0  0
    9.6147   16.7829   23.9982 C    0  0  0  0  0  0  0  0  0  0  0  0
    8.7909    8.0789   22.8990 H    0  0  0  0  0  0  0  0  0  0  0  0
    9.8216    7.7367   24.3321 H    0  0  0  0  0  0  0  0  0  0  0  0
   10.5525    8.2686   22.8072 H    0  0  0  0  0  0  0  0  0  0  0  0
    7.4558    8.2864   24.9595 H    0  0  0  0  0  0  0  0  0  0  0  0
    5.5149    8.6226   26.3926 H    0  0  0  0  0  0  0  0  0  0  0  0
    6.4558   12.8244   26.7184 H    0  0  0  0  0  0  0  0  0  0  0  0
    9.7165   12.6584   25.2607 H    0  0  0  0  0  0  0  0  0  0  0  0
    8.4802   13.6642   25.9370 H    0  0  0  0  0  0  0  0  0  0  0  0
   10.2199   15.0793   25.1817 H    0  0  0  0  0  0  0  0  0  0  0  0
   11.8590   14.1088   23.5757 H    0  0  0  0  0  0  0  0  0  0  0  0
   12.2894   15.7638   23.9582 H    0  0  0  0  0  0  0  0  0  0  0  0
   12.3899   14.9992   21.4334 H    0  0  0  0  0  0  0  0  0  0  0  0
   11.7009   16.5635   21.7879 H    0  0  0  0  0  0  0  0  0  0  0  0
   10.2459   13.9655   21.1686 H    0  0  0  0  0  0  0  0  0  0  0  0
   10.5661   15.0219   17.9022 H    0  0  0  0  0  0  0  0  0  0  0  0
   10.7949   13.7761   19.1290 H    0  0  0  0  0  0  0  0  0  0  0  0
    8.0292   15.0656   21.5946 H    0  0  0  0  0  0  0  0  0  0  0  0
    7.7872   17.0607   22.8363 H    0  0  0  0  0  0  0  0  0  0  0  0
    9.2469   17.5356   21.9766 H    0  0  0  0  0  0  0  0  0  0  0  0
    8.9420   17.0185   24.8293 H    0  0  0  0  0  0  0  0  0  0  0  0
   10.4134   17.5302   23.9974 H    0  0  0  0  0  0  0  0  0  0  0  0
 10 11  1  0  0  0  0
  9 10  1  0  0  0  0
  8  9  2  0  0  0  0
  6  8  1  0  0  0  0
  5  6  2  0  0  0  0
  4  5  1  0  0  0  0
  3  4  2  0  0  0  0
  2  3  1  0  0  0  0
  1  2  1  0  0  0  0
 24  1  1  0  0  0  0
 25  1  1  0  0  0  0
 26  1  1  0  0  0  0
 27  4  1  0  0  0  0
 28  5  1  0  0  0  0
  7  6  1  0  0  0  0
 29  8  1  0  0  0  0
 30 10  1  0  0  0  0
 31 10  1  0  0  0  0
 12 11  2  0  0  0  0
 13 11  1  0  0  0  0
 14 13  1  0  0  0  0
 15 14  1  0  0  0  0
 32 14  1  0  0  0  0
 16 15  1  0  0  0  0
 33 15  1  0  0  0  0
 34 15  1  0  0  0  0
 17 16  1  0  0  0  0
 35 16  1  0  0  0  0
 36 16  1  0  0  0  0
 18 17  1  0  0  0  0
 21 17  1  0  0  0  0
 37 17  1  0  0  0  0
 19 18  1  0  0  0  0
 20 18  2  0  0  0  0
 38 19  1  0  0  0  0
 39 19  1  0  0  0  0
 22 21  1  0  0  0  0
 40 21  1  0  0  0  0
 23 22  1  0  0  0  0
 41 22  1  0  0  0  0
 42 22  1  0  0  0  0
 43 23  1  0  0  0  0
 44 23  1  0  0  0  0
  9  3  1  0  0  0  0
 21 13  1  0  0  0  0
 23 14  1  0  0  0  0
M  END
>  <FittedScore>
-32.82

$$$$
