A71EV2A-x3509b_lowest-energy
  FITTED

 36 37     0  0  0  0  0  0  0999 V2000
    9.9983   17.0585   19.3283 O    0  0  0  0  0  0  0  0  0  0  0  0
   10.5741   16.0507   19.6964 C    0  0  0  0  0  0  0  0  0  0  0  0
   10.6635   14.9945   18.8661 N    0  0  0  0  0  0  0  0  0  0  0  0
   10.9638   15.7708   21.1483 C    0  0  0  0  0  0  0  0  0  0  0  0
   11.6817   16.9843   21.8166 C    0  0  0  0  0  0  0  0  0  0  0  0
   11.9420   16.7427   23.3273 C    0  0  0  0  0  0  0  0  0  0  0  0
   10.6769   16.2180   24.0633 C    0  0  0  0  0  0  0  0  0  0  0  0
    9.7147   15.3406   21.9739 C    0  0  0  0  0  0  0  0  0  0  0  0
   10.0677   15.0149   23.3997 N    0  0  0  0  0  0  0  0  0  0  0  0
    9.8354   13.8264   24.0609 C    0  0  0  0  0  0  0  0  0  0  0  0
    9.9538   13.7182   25.2691 O    0  0  0  0  0  0  0  0  0  0  0  0
    9.5247   12.7392   23.2942 N    0  0  0  0  0  0  0  0  0  0  0  0
    8.9164   11.5103   23.7219 C    0  0  0  0  0  0  0  0  0  0  0  0
    9.3317   10.2963   23.1474 C    0  0  0  0  0  0  0  0  0  0  0  0
    8.7210    9.0916   23.5192 C    0  0  0  0  0  0  0  0  0  0  0  0
    7.6879    9.0945   24.4687 C    0  0  0  0  0  0  0  0  0  0  0  0
    7.8953   11.5007   24.6932 C    0  0  0  0  0  0  0  0  0  0  0  0
    7.2803   10.2983   25.0625 C    0  0  0  0  0  0  0  0  0  0  0  0
    6.2695   10.2949   26.0859 C    0  0  0  0  0  0  0  0  0  0  0  0
    5.4861   10.2977   26.9084 N    0  0  0  0  0  0  0  0  0  0  0  0
   10.8920   14.0612   19.2168 H    0  0  0  0  0  0  0  0  0  0  0  0
   10.5033   15.1301   17.8699 H    0  0  0  0  0  0  0  0  0  0  0  0
   11.6788   14.9388   21.1671 H    0  0  0  0  0  0  0  0  0  0  0  0
   12.6308   17.1794   21.3097 H    0  0  0  0  0  0  0  0  0  0  0  0
   11.0764   17.8892   21.7153 H    0  0  0  0  0  0  0  0  0  0  0  0
   12.7587   16.0229   23.4484 H    0  0  0  0  0  0  0  0  0  0  0  0
   12.2699   17.6734   23.7958 H    0  0  0  0  0  0  0  0  0  0  0  0
   10.9681   16.0153   25.0953 H    0  0  0  0  0  0  0  0  0  0  0  0
    9.9276   17.0144   24.1266 H    0  0  0  0  0  0  0  0  0  0  0  0
    9.2172   14.5158   21.4588 H    0  0  0  0  0  0  0  0  0  0  0  0
    8.9715   16.1471   21.9663 H    0  0  0  0  0  0  0  0  0  0  0  0
    9.7976   12.7427   22.3139 H    0  0  0  0  0  0  0  0  0  0  0  0
   10.1247   10.2815   22.4035 H    0  0  0  0  0  0  0  0  0  0  0  0
    9.0453    8.1560   23.0729 H    0  0  0  0  0  0  0  0  0  0  0  0
    7.2166    8.1545   24.7508 H    0  0  0  0  0  0  0  0  0  0  0  0
    7.5717   12.4315   25.1602 H    0  0  0  0  0  0  0  0  0  0  0  0
 10 12  1  0  0  0  0
  9 10  1  0  0  0  0
  7  9  1  0  0  0  0
  6  7  1  0  0  0  0
  5  6  1  0  0  0  0
  4  5  1  0  0  0  0
  2  4  1  0  0  0  0
  1  2  2  0  0  0  0
  3  2  1  0  0  0  0
 21  3  1  0  0  0  0
 22  3  1  0  0  0  0
 23  4  1  0  0  0  0
 24  5  1  0  0  0  0
 25  5  1  0  0  0  0
 26  6  1  0  0  0  0
 27  6  1  0  0  0  0
 28  7  1  0  0  0  0
 29  7  1  0  0  0  0
  8  4  1  0  0  0  0
 30  8  1  0  0  0  0
 31  8  1  0  0  0  0
 11 10  2  0  0  0  0
 32 12  1  0  0  0  0
 13 12  1  0  0  0  0
 14 13  1  0  0  0  0
 33 14  1  0  0  0  0
 15 14  2  0  0  0  0
 34 15  1  0  0  0  0
 16 15  1  0  0  0  0
 35 16  1  0  0  0  0
 17 13  2  0  0  0  0
 36 17  1  0  0  0  0
 18 16  2  0  0  0  0
 19 18  1  0  0  0  0
 20 19  3  0  0  0  0
  9  8  1  0  0  0  0
 18 17  1  0  0  0  0
M  END
>  <FittedScore>
-33.13

$$$$
