A71EV2A-x3509b_best-RMSD
  FITTED

 36 37     0  0  0  0  0  0  0999 V2000
    9.9656   17.0265   19.3346 O    0  0  0  0  0  0  0  0  0  0  0  0
   10.4866   15.9902   19.7046 C    0  0  0  0  0  0  0  0  0  0  0  0
   10.5614   14.9381   18.8688 N    0  0  0  0  0  0  0  0  0  0  0  0
   10.9090   15.7046   21.1459 C    0  0  0  0  0  0  0  0  0  0  0  0
   11.6642   16.9105   21.7850 C    0  0  0  0  0  0  0  0  0  0  0  0
   11.9513   16.6901   23.2930 C    0  0  0  0  0  0  0  0  0  0  0  0
   10.6933   16.1964   24.0601 C    0  0  0  0  0  0  0  0  0  0  0  0
    9.6812   15.2880   22.0092 C    0  0  0  0  0  0  0  0  0  0  0  0
   10.0678   14.9852   23.4303 N    0  0  0  0  0  0  0  0  0  0  0  0
    9.8436   13.8071   24.1126 C    0  0  0  0  0  0  0  0  0  0  0  0
    9.9865   13.7072   25.3180 O    0  0  0  0  0  0  0  0  0  0  0  0
    9.5160   12.7110   23.3683 N    0  0  0  0  0  0  0  0  0  0  0  0
    8.8626   11.5115   23.8120 C    0  0  0  0  0  0  0  0  0  0  0  0
    9.2331   10.2719   23.2616 C    0  0  0  0  0  0  0  0  0  0  0  0
    8.5712    9.0986   23.6521 C    0  0  0  0  0  0  0  0  0  0  0  0
    7.5303    9.1601   24.5906 C    0  0  0  0  0  0  0  0  0  0  0  0
    7.8315   11.5597   24.7738 C    0  0  0  0  0  0  0  0  0  0  0  0
    7.1798   10.3850   25.1750 C    0  0  0  0  0  0  0  0  0  0  0  0
    6.1754   10.4361   26.2054 C    0  0  0  0  0  0  0  0  0  0  0  0
    5.3983   10.4794   27.0344 N    0  0  0  0  0  0  0  0  0  0  0  0
   10.7933   14.0053   19.2081 H    0  0  0  0  0  0  0  0  0  0  0  0
   10.4028   15.0727   17.8814 H    0  0  0  0  0  0  0  0  0  0  0  0
   11.6102   14.8609   21.1524 H    0  0  0  0  0  0  0  0  0  0  0  0
   12.6036   17.0781   21.2519 H    0  0  0  0  0  0  0  0  0  0  0  0
   11.0709   17.8228   21.6784 H    0  0  0  0  0  0  0  0  0  0  0  0
   12.7605   15.9628   23.4085 H    0  0  0  0  0  0  0  0  0  0  0  0
   12.3022   17.6256   23.7326 H    0  0  0  0  0  0  0  0  0  0  0  0
   10.9849   16.0199   25.0968 H    0  0  0  0  0  0  0  0  0  0  0  0
    9.9515   16.9982   24.1020 H    0  0  0  0  0  0  0  0  0  0  0  0
    9.1751   14.4545   21.5174 H    0  0  0  0  0  0  0  0  0  0  0  0
    8.9366   16.0897   22.0102 H    0  0  0  0  0  0  0  0  0  0  0  0
    9.7935   12.6923   22.3879 H    0  0  0  0  0  0  0  0  0  0  0  0
   10.0333   10.2092   22.5275 H    0  0  0  0  0  0  0  0  0  0  0  0
    8.8601    8.1417   23.2237 H    0  0  0  0  0  0  0  0  0  0  0  0
    7.0093    8.2469   24.8759 H    0  0  0  0  0  0  0  0  0  0  0  0
    7.5321   12.5088   25.2164 H    0  0  0  0  0  0  0  0  0  0  0  0
 10 12  1  0  0  0  0
  9 10  1  0  0  0  0
  7  9  1  0  0  0  0
  6  7  1  0  0  0  0
  5  6  1  0  0  0  0
  4  5  1  0  0  0  0
  2  4  1  0  0  0  0
  1  2  2  0  0  0  0
  3  2  1  0  0  0  0
 21  3  1  0  0  0  0
 22  3  1  0  0  0  0
 23  4  1  0  0  0  0
 24  5  1  0  0  0  0
 25  5  1  0  0  0  0
 26  6  1  0  0  0  0
 27  6  1  0  0  0  0
 28  7  1  0  0  0  0
 29  7  1  0  0  0  0
  8  4  1  0  0  0  0
 30  8  1  0  0  0  0
 31  8  1  0  0  0  0
 11 10  2  0  0  0  0
 32 12  1  0  0  0  0
 13 12  1  0  0  0  0
 14 13  1  0  0  0  0
 33 14  1  0  0  0  0
 15 14  2  0  0  0  0
 34 15  1  0  0  0  0
 16 15  1  0  0  0  0
 35 16  1  0  0  0  0
 17 13  2  0  0  0  0
 36 17  1  0  0  0  0
 18 16  2  0  0  0  0
 19 18  1  0  0  0  0
 20 19  3  0  0  0  0
  9  8  1  0  0  0  0
 18 17  1  0  0  0  0
M  END
>  <FittedScore>
-33.08

$$$$
