A71EV2A-x4675a_lowest-energy
  FITTED

 42 43     0  0  0  0  0  0  0999 V2000
   10.0485   16.8469   19.1065 O    0  0  0  0  0  0  0  0  0  0  0  0
   10.5422   15.8085   19.5079 C    0  0  0  0  0  0  0  0  0  0  0  0
   10.9771   14.8762   18.6400 N    0  0  0  0  0  0  0  0  0  0  0  0
   10.5792   15.3955   20.9749 C    0  0  0  0  0  0  0  0  0  0  0  0
   11.5666   16.2789   21.7847 C    0  0  0  0  0  0  0  0  0  0  0  0
   11.5554   15.8746   23.2838 C    0  0  0  0  0  0  0  0  0  0  0  0
   10.1126   15.8073   23.8591 C    0  0  0  0  0  0  0  0  0  0  0  0
    9.1581   15.3941   21.6205 C    0  0  0  0  0  0  0  0  0  0  0  0
    9.1745   14.9475   23.0543 N    0  0  0  0  0  0  0  0  0  0  0  0
    8.3799   13.9224   23.5399 C    0  0  0  0  0  0  0  0  0  0  0  0
    7.5556   13.3719   22.8282 O    0  0  0  0  0  0  0  0  0  0  0  0
    8.5761   13.4326   24.9834 C    0  0  0  0  0  0  0  0  0  0  0  0
    7.6445   12.2778   25.3955 C    0  0  0  0  0  0  0  0  0  0  0  0
    7.9158   10.8955   25.1618 C    0  0  0  0  0  0  0  0  0  0  0  0
    9.4036   10.3458   24.3296 S    0  0  0  0  0  0  0  0  0  0  0  0
   10.4602   10.5025   25.2855 O    0  0  0  0  0  0  0  0  0  0  0  0
    9.5144   11.0460   23.0824 O    0  0  0  0  0  0  0  0  0  0  0  0
    9.3254    8.6115   23.9440 C    0  0  0  0  0  0  0  0  0  0  0  0
    6.4375   12.6409   26.0245 C    0  0  0  0  0  0  0  0  0  0  0  0
    5.5319   11.6749   26.4716 C    0  0  0  0  0  0  0  0  0  0  0  0
    5.8216   10.3224   26.2888 C    0  0  0  0  0  0  0  0  0  0  0  0
    6.9881    9.9373   25.6191 C    0  0  0  0  0  0  0  0  0  0  0  0
   10.9547   15.0749   17.6461 H    0  0  0  0  0  0  0  0  0  0  0  0
   11.2538   13.9450   18.9548 H    0  0  0  0  0  0  0  0  0  0  0  0
   10.9422   14.3595   21.0472 H    0  0  0  0  0  0  0  0  0  0  0  0
   12.5756   16.1556   21.3871 H    0  0  0  0  0  0  0  0  0  0  0  0
   11.3113   17.3383   21.6848 H    0  0  0  0  0  0  0  0  0  0  0  0
   12.0379   14.9002   23.4137 H    0  0  0  0  0  0  0  0  0  0  0  0
   12.1442   16.5953   23.8583 H    0  0  0  0  0  0  0  0  0  0  0  0
   10.2067   15.4961   24.9005 H    0  0  0  0  0  0  0  0  0  0  0  0
    9.7027   16.8229   23.9125 H    0  0  0  0  0  0  0  0  0  0  0  0
    8.5270   14.7555   21.0025 H    0  0  0  0  0  0  0  0  0  0  0  0
    8.7126   16.3952   21.5564 H    0  0  0  0  0  0  0  0  0  0  0  0
    9.6201   13.1479   25.1305 H    0  0  0  0  0  0  0  0  0  0  0  0
    8.4097   14.2734   25.6642 H    0  0  0  0  0  0  0  0  0  0  0  0
    9.2647    8.0251   24.8644 H    0  0  0  0  0  0  0  0  0  0  0  0
   10.2439    8.3365   23.4176 H    0  0  0  0  0  0  0  0  0  0  0  0
    8.4694    8.4075   23.2967 H    0  0  0  0  0  0  0  0  0  0  0  0
    6.1953   13.6921   26.1769 H    0  0  0  0  0  0  0  0  0  0  0  0
    4.6165   11.9811   26.9658 H    0  0  0  0  0  0  0  0  0  0  0  0
    5.1260    9.5662   26.6486 H    0  0  0  0  0  0  0  0  0  0  0  0
    7.1579    8.8750   25.4784 H    0  0  0  0  0  0  0  0  0  0  0  0
  9 10  1  0  0  0  0
  7  9  1  0  0  0  0
  6  7  1  0  0  0  0
  5  6  1  0  0  0  0
  4  5  1  0  0  0  0
  2  4  1  0  0  0  0
  1  2  2  0  0  0  0
  3  2  1  0  0  0  0
 23  3  1  0  0  0  0
 24  3  1  0  0  0  0
 25  4  1  0  0  0  0
 26  5  1  0  0  0  0
 27  5  1  0  0  0  0
 28  6  1  0  0  0  0
 29  6  1  0  0  0  0
 30  7  1  0  0  0  0
 31  7  1  0  0  0  0
  8  4  1  0  0  0  0
 32  8  1  0  0  0  0
 33  8  1  0  0  0  0
 11 10  2  0  0  0  0
 12 10  1  0  0  0  0
 34 12  1  0  0  0  0
 35 12  1  0  0  0  0
 13 12  1  0  0  0  0
 14 13  1  0  0  0  0
 22 14  2  0  0  0  0
 15 14  1  0  0  0  0
 16 15  2  0  0  0  0
 17 15  2  0  0  0  0
 18 15  1  0  0  0  0
 36 18  1  0  0  0  0
 37 18  1  0  0  0  0
 38 18  1  0  0  0  0
 19 13  2  0  0  0  0
 39 19  1  0  0  0  0
 20 19  1  0  0  0  0
 40 20  1  0  0  0  0
 21 20  2  0  0  0  0
 41 21  1  0  0  0  0
 42 22  1  0  0  0  0
  9  8  1  0  0  0  0
 22 21  1  0  0  0  0
M  END
>  <FittedScore>
-29.62

$$$$
