A71EV2A-x4675a_best-RMSD
  FITTED

 42 43     0  0  0  0  0  0  0999 V2000
    9.7913   16.8928   19.4090 O    0  0  0  0  0  0  0  0  0  0  0  0
   10.2265   15.8203   19.7934 C    0  0  0  0  0  0  0  0  0  0  0  0
   10.6966   14.9324   18.8960 N    0  0  0  0  0  0  0  0  0  0  0  0
   10.2314   15.3585   21.2583 C    0  0  0  0  0  0  0  0  0  0  0  0
   11.3246   16.1256   22.0618 C    0  0  0  0  0  0  0  0  0  0  0  0
   11.2611   15.7869   23.5741 C    0  0  0  0  0  0  0  0  0  0  0  0
    9.8191   15.9359   24.1314 C    0  0  0  0  0  0  0  0  0  0  0  0
    8.8238   15.4743   21.9297 C    0  0  0  0  0  0  0  0  0  0  0  0
    8.8174   15.0978   23.3840 N    0  0  0  0  0  0  0  0  0  0  0  0
    7.9541   14.1603   23.9201 C    0  0  0  0  0  0  0  0  0  0  0  0
    7.0902   13.6359   23.2337 O    0  0  0  0  0  0  0  0  0  0  0  0
    8.0615   13.7575   25.4030 C    0  0  0  0  0  0  0  0  0  0  0  0
    7.4380   12.3841   25.7127 C    0  0  0  0  0  0  0  0  0  0  0  0
    7.9952   11.1437   25.2770 C    0  0  0  0  0  0  0  0  0  0  0  0
    9.5800   11.0242   24.4319 S    0  0  0  0  0  0  0  0  0  0  0  0
   10.5723   11.7524   25.1703 O    0  0  0  0  0  0  0  0  0  0  0  0
    9.3575   11.4283   23.0754 O    0  0  0  0  0  0  0  0  0  0  0  0
   10.1256    9.3218   24.3954 C    0  0  0  0  0  0  0  0  0  0  0  0
    6.1990   12.3861   26.3865 C    0  0  0  0  0  0  0  0  0  0  0  0
    5.5081   11.1954   26.6282 C    0  0  0  0  0  0  0  0  0  0  0  0
    6.0322    9.9842   26.1752 C    0  0  0  0  0  0  0  0  0  0  0  0
    7.2497    9.9633   25.4879 C    0  0  0  0  0  0  0  0  0  0  0  0
   10.9530   13.9973   19.1953 H    0  0  0  0  0  0  0  0  0  0  0  0
   10.6137   15.1348   17.9045 H    0  0  0  0  0  0  0  0  0  0  0  0
   10.4945   14.2930   21.3027 H    0  0  0  0  0  0  0  0  0  0  0  0
   12.3112   15.8653   21.6741 H    0  0  0  0  0  0  0  0  0  0  0  0
   11.2054   17.2054   21.9246 H    0  0  0  0  0  0  0  0  0  0  0  0
   11.6107   14.7599   23.7382 H    0  0  0  0  0  0  0  0  0  0  0  0
   11.9382   16.4493   24.1216 H    0  0  0  0  0  0  0  0  0  0  0  0
    9.8570   15.7265   25.2001 H    0  0  0  0  0  0  0  0  0  0  0  0
    9.5163   16.9888   24.0754 H    0  0  0  0  0  0  0  0  0  0  0  0
    8.1365   14.8631   21.3425 H    0  0  0  0  0  0  0  0  0  0  0  0
    8.4485   16.4982   21.8329 H    0  0  0  0  0  0  0  0  0  0  0  0
    9.0862   13.7383   25.7664 H    0  0  0  0  0  0  0  0  0  0  0  0
    7.5824   14.5436   25.9931 H    0  0  0  0  0  0  0  0  0  0  0  0
    9.4873    8.7284   23.7380 H    0  0  0  0  0  0  0  0  0  0  0  0
   10.1189    8.9009   25.4029 H    0  0  0  0  0  0  0  0  0  0  0  0
   11.1437    9.2895   24.0051 H    0  0  0  0  0  0  0  0  0  0  0  0
    5.7493   13.3187   26.7174 H    0  0  0  0  0  0  0  0  0  0  0  0
    4.5569   11.2139   27.1510 H    0  0  0  0  0  0  0  0  0  0  0  0
    5.4892    9.0556   26.3445 H    0  0  0  0  0  0  0  0  0  0  0  0
    7.5915    9.0032   25.1285 H    0  0  0  0  0  0  0  0  0  0  0  0
  9 10  1  0  0  0  0
  7  9  1  0  0  0  0
  6  7  1  0  0  0  0
  5  6  1  0  0  0  0
  4  5  1  0  0  0  0
  2  4  1  0  0  0  0
  1  2  2  0  0  0  0
  3  2  1  0  0  0  0
 23  3  1  0  0  0  0
 24  3  1  0  0  0  0
 25  4  1  0  0  0  0
 26  5  1  0  0  0  0
 27  5  1  0  0  0  0
 28  6  1  0  0  0  0
 29  6  1  0  0  0  0
 30  7  1  0  0  0  0
 31  7  1  0  0  0  0
  8  4  1  0  0  0  0
 32  8  1  0  0  0  0
 33  8  1  0  0  0  0
 11 10  2  0  0  0  0
 12 10  1  0  0  0  0
 34 12  1  0  0  0  0
 35 12  1  0  0  0  0
 13 12  1  0  0  0  0
 14 13  1  0  0  0  0
 22 14  2  0  0  0  0
 15 14  1  0  0  0  0
 16 15  2  0  0  0  0
 17 15  2  0  0  0  0
 18 15  1  0  0  0  0
 36 18  1  0  0  0  0
 37 18  1  0  0  0  0
 38 18  1  0  0  0  0
 19 13  2  0  0  0  0
 39 19  1  0  0  0  0
 20 19  1  0  0  0  0
 40 20  1  0  0  0  0
 21 20  2  0  0  0  0
 41 21  1  0  0  0  0
 42 22  1  0  0  0  0
  9  8  1  0  0  0  0
 22 21  1  0  0  0  0
M  END
>  <FittedScore>
-28.96

$$$$
