A71EV2A-x4644b_best-RMSD
  FITTED

 36 37     0  0  0  0  0  0  0999 V2000
    9.4577   10.4778   24.3835 BR   0  0  0  0  0  0  0  0  0  0  0  0
    7.9584   11.0227   25.4582 C    0  0  0  0  0  0  0  0  0  0  0  0
    7.0969   10.0158   25.9414 C    0  0  0  0  0  0  0  0  0  0  0  0
    7.2317    8.7343   25.5431 F    0  0  0  0  0  0  0  0  0  0  0  0
    6.0489   10.3489   26.8197 C    0  0  0  0  0  0  0  0  0  0  0  0
    5.3131    9.3993   27.4218 F    0  0  0  0  0  0  0  0  0  0  0  0
    5.7844   11.6806   27.1456 C    0  0  0  0  0  0  0  0  0  0  0  0
    6.5755   12.6927   26.6003 C    0  0  0  0  0  0  0  0  0  0  0  0
    7.6812   12.3850   25.7795 C    0  0  0  0  0  0  0  0  0  0  0  0
    8.5099   13.5734   25.2672 C    0  0  0  0  0  0  0  0  0  0  0  0
    8.2283   13.9791   23.8119 C    0  0  0  0  0  0  0  0  0  0  0  0
    7.4318   13.3392   23.1359 O    0  0  0  0  0  0  0  0  0  0  0  0
    8.9383   15.0385   23.2829 N    0  0  0  0  0  0  0  0  0  0  0  0
    9.9315   15.9272   23.9977 C    0  0  0  0  0  0  0  0  0  0  0  0
   11.3532   15.8511   23.3782 C    0  0  0  0  0  0  0  0  0  0  0  0
   11.3271   16.2043   21.8659 C    0  0  0  0  0  0  0  0  0  0  0  0
    8.8466   15.4577   21.8471 C    0  0  0  0  0  0  0  0  0  0  0  0
   10.2317   15.3787   21.1219 C    0  0  0  0  0  0  0  0  0  0  0  0
   10.1347   15.8134   19.6607 C    0  0  0  0  0  0  0  0  0  0  0  0
    9.6886   16.8860   19.2969 O    0  0  0  0  0  0  0  0  0  0  0  0
   10.5254   14.8916   18.7602 N    0  0  0  0  0  0  0  0  0  0  0  0
    4.9700   11.9274   27.8219 H    0  0  0  0  0  0  0  0  0  0  0  0
    6.3274   13.7232   26.8339 H    0  0  0  0  0  0  0  0  0  0  0  0
    8.3223   14.4404   25.9101 H    0  0  0  0  0  0  0  0  0  0  0  0
    9.5733   13.3503   25.3915 H    0  0  0  0  0  0  0  0  0  0  0  0
    9.5751   16.9607   23.9589 H    0  0  0  0  0  0  0  0  0  0  0  0
   10.0298   15.7291   25.0625 H    0  0  0  0  0  0  0  0  0  0  0  0
   12.0221   16.5355   23.9038 H    0  0  0  0  0  0  0  0  0  0  0  0
   11.7562   14.8440   23.5205 H    0  0  0  0  0  0  0  0  0  0  0  0
   11.1539   17.2807   21.7416 H    0  0  0  0  0  0  0  0  0  0  0  0
   12.3081   15.9953   21.4336 H    0  0  0  0  0  0  0  0  0  0  0  0
    8.4582   16.4824   21.8043 H    0  0  0  0  0  0  0  0  0  0  0  0
    8.1295   14.8612   21.2750 H    0  0  0  0  0  0  0  0  0  0  0  0
   10.5423   14.3259   21.1779 H    0  0  0  0  0  0  0  0  0  0  0  0
   10.4803   15.1077   17.7734 H    0  0  0  0  0  0  0  0  0  0  0  0
   10.7597   13.9465   19.0555 H    0  0  0  0  0  0  0  0  0  0  0  0
 10 11  1  0  0  0  0
  9 10  1  0  0  0  0
  8  9  2  0  0  0  0
  7  8  1  0  0  0  0
  5  7  2  0  0  0  0
  3  5  1  0  0  0  0
  2  3  2  0  0  0  0
  1  2  1  0  0  0  0
  4  3  1  0  0  0  0
  6  5  1  0  0  0  0
 22  7  1  0  0  0  0
 23  8  1  0  0  0  0
 24 10  1  0  0  0  0
 25 10  1  0  0  0  0
 12 11  2  0  0  0  0
 13 11  1  0  0  0  0
 14 13  1  0  0  0  0
 26 14  1  0  0  0  0
 27 14  1  0  0  0  0
 15 14  1  0  0  0  0
 28 15  1  0  0  0  0
 29 15  1  0  0  0  0
 16 15  1  0  0  0  0
 30 16  1  0  0  0  0
 31 16  1  0  0  0  0
 17 13  1  0  0  0  0
 32 17  1  0  0  0  0
 33 17  1  0  0  0  0
 18 16  1  0  0  0  0
 19 18  1  0  0  0  0
 34 18  1  0  0  0  0
 20 19  2  0  0  0  0
 21 19  1  0  0  0  0
 35 21  1  0  0  0  0
 36 21  1  0  0  0  0
  9  2  1  0  0  0  0
 18 17  1  0  0  0  0
M  END
>  <FittedScore>
-28.27

$$$$
