A71EV2A-x4661a_lowest-energy
  FITTED

 40 41     0  0  0  0  0  0  0999 V2000
    5.2820   11.9937   26.3680 C    0  0  0  0  0  0  0  0  0  0  0  0
    6.3316   12.6352   25.6002 O    0  0  0  0  0  0  0  0  0  0  0  0
    7.3116   11.9735   24.8548 C    0  0  0  0  0  0  0  0  0  0  0  0
    7.4806   10.5724   24.9729 C    0  0  0  0  0  0  0  0  0  0  0  0
    8.4746    9.9077   24.2639 C    0  0  0  0  0  0  0  0  0  0  0  0
    9.3228   10.6227   23.4279 C    0  0  0  0  0  0  0  0  0  0  0  0
    9.1650   12.0026   23.2763 C    0  0  0  0  0  0  0  0  0  0  0  0
    8.1500   12.7161   23.9680 C    0  0  0  0  0  0  0  0  0  0  0  0
    7.9600   14.2615   23.7771 C    0  0  0  0  0  0  0  0  0  0  0  0
    6.6275   14.6561   23.0639 C    0  0  0  0  0  0  0  0  0  0  0  0
    9.2109   14.9555   23.2622 N    0  0  0  0  0  0  0  0  0  0  0  0
    9.2533   15.1387   21.7715 C    0  0  0  0  0  0  0  0  0  0  0  0
   10.6720   15.2408   21.1552 C    0  0  0  0  0  0  0  0  0  0  0  0
   10.6038   15.6353   19.6787 C    0  0  0  0  0  0  0  0  0  0  0  0
   10.8057   14.6414   18.7919 N    0  0  0  0  0  0  0  0  0  0  0  0
   10.2062   16.7086   19.2698 O    0  0  0  0  0  0  0  0  0  0  0  0
   11.5296   16.2123   22.0017 C    0  0  0  0  0  0  0  0  0  0  0  0
   11.6083   15.7085   23.4678 C    0  0  0  0  0  0  0  0  0  0  0  0
   10.2704   15.2857   24.0939 C    0  0  0  0  0  0  0  0  0  0  0  0
   10.2296   15.1276   25.3013 O    0  0  0  0  0  0  0  0  0  0  0  0
    4.6412   12.7570   26.8033 H    0  0  0  0  0  0  0  0  0  0  0  0
    5.7076   11.3920   27.1743 H    0  0  0  0  0  0  0  0  0  0  0  0
    4.6867   11.3622   25.7084 H    0  0  0  0  0  0  0  0  0  0  0  0
    6.8512    9.9738   25.6258 H    0  0  0  0  0  0  0  0  0  0  0  0
    8.5936    8.8354   24.3750 H    0  0  0  0  0  0  0  0  0  0  0  0
   10.1117   10.1020   22.8903 H    0  0  0  0  0  0  0  0  0  0  0  0
    9.8540   12.4929   22.5961 H    0  0  0  0  0  0  0  0  0  0  0  0
    7.8020   14.6671   24.7812 H    0  0  0  0  0  0  0  0  0  0  0  0
    5.7597   14.3982   23.6749 H    0  0  0  0  0  0  0  0  0  0  0  0
    6.5123   14.1447   22.1059 H    0  0  0  0  0  0  0  0  0  0  0  0
    6.5758   15.7331   22.8915 H    0  0  0  0  0  0  0  0  0  0  0  0
    8.6848   16.0424   21.5325 H    0  0  0  0  0  0  0  0  0  0  0  0
    8.7509   14.3099   21.2624 H    0  0  0  0  0  0  0  0  0  0  0  0
   11.1320   14.2479   21.2328 H    0  0  0  0  0  0  0  0  0  0  0  0
   10.6959   14.8240   17.7974 H    0  0  0  0  0  0  0  0  0  0  0  0
   10.9658   13.6846   19.1033 H    0  0  0  0  0  0  0  0  0  0  0  0
   11.0967   17.2180   21.9850 H    0  0  0  0  0  0  0  0  0  0  0  0
   12.5364   16.2881   21.5812 H    0  0  0  0  0  0  0  0  0  0  0  0
   12.0597   16.5011   24.0733 H    0  0  0  0  0  0  0  0  0  0  0  0
   12.2926   14.8549   23.5144 H    0  0  0  0  0  0  0  0  0  0  0  0
  9 11  1  0  0  0  0
  8  9  1  0  0  0  0
  7  8  2  0  0  0  0
  6  7  1  0  0  0  0
  5  6  2  0  0  0  0
  4  5  1  0  0  0  0
  3  4  2  0  0  0  0
  2  3  1  0  0  0  0
  1  2  1  0  0  0  0
 21  1  1  0  0  0  0
 22  1  1  0  0  0  0
 23  1  1  0  0  0  0
 24  4  1  0  0  0  0
 25  5  1  0  0  0  0
 26  6  1  0  0  0  0
 27  7  1  0  0  0  0
 10  9  1  0  0  0  0
 28  9  1  0  0  0  0
 29 10  1  0  0  0  0
 30 10  1  0  0  0  0
 31 10  1  0  0  0  0
 12 11  1  0  0  0  0
 13 12  1  0  0  0  0
 32 12  1  0  0  0  0
 33 12  1  0  0  0  0
 14 13  1  0  0  0  0
 17 13  1  0  0  0  0
 34 13  1  0  0  0  0
 15 14  1  0  0  0  0
 16 14  2  0  0  0  0
 35 15  1  0  0  0  0
 36 15  1  0  0  0  0
 18 17  1  0  0  0  0
 37 17  1  0  0  0  0
 38 17  1  0  0  0  0
 19 18  1  0  0  0  0
 39 18  1  0  0  0  0
 40 18  1  0  0  0  0
 20 19  2  0  0  0  0
  8  3  1  0  0  0  0
 19 11  1  0  0  0  0
M  END
>  <FittedScore>
-28.73

$$$$
