A71EV2A-x5891a_lowest-energy
  FITTED

 54 55     0  0  0  0  0  0  0999 V2000
    9.1241    8.6871   23.4510 C    0  0  0  0  0  0  0  0  0  0  0  0
    9.0136   10.4744   23.7661 S    0  0  0  0  0  0  0  0  0  0  0  0
    7.5260   10.7790   24.7421 C    0  0  0  0  0  0  0  0  0  0  0  0
    7.0033    9.7515   25.5587 C    0  0  0  0  0  0  0  0  0  0  0  0
    5.9890   10.0027   26.4846 C    0  0  0  0  0  0  0  0  0  0  0  0
    5.4910   11.3039   26.6209 C    0  0  0  0  0  0  0  0  0  0  0  0
    4.2145   11.6829   27.9800 BR   0  0  0  0  0  0  0  0  0  0  0  0
    5.9532   12.3302   25.7785 C    0  0  0  0  0  0  0  0  0  0  0  0
    6.9178   12.0678   24.7762 C    0  0  0  0  0  0  0  0  0  0  0  0
    7.3059   13.1770   23.7644 C    0  0  0  0  0  0  0  0  0  0  0  0
    6.1872   14.1168   23.4944 N    0  0  0  0  0  0  0  0  0  0  0  0
    5.3417   14.0977   22.4336 C    0  0  0  0  0  0  0  0  0  0  0  0
    5.4324   13.3265   21.5033 O    0  0  0  0  0  0  0  0  0  0  0  0
    4.3851   15.0533   22.5377 O    0  0  0  0  0  0  0  0  0  0  0  0
    3.1316   15.1987   21.7690 C    0  0  0  0  0  0  0  0  0  0  0  0
    2.1780   14.0012   22.0798 C    0  0  0  0  0  0  0  0  0  0  0  0
    3.3879   15.3390   20.2346 C    0  0  0  0  0  0  0  0  0  0  0  0
    2.5005   16.5198   22.3061 C    0  0  0  0  0  0  0  0  0  0  0  0
    8.5737   13.9402   24.1619 C    0  0  0  0  0  0  0  0  0  0  0  0
    9.0638   13.7592   25.2622 O    0  0  0  0  0  0  0  0  0  0  0  0
    9.2237   14.7321   23.2437 N    0  0  0  0  0  0  0  0  0  0  0  0
   10.4630   15.4974   23.5353 C    0  0  0  0  0  0  0  0  0  0  0  0
   11.0817   15.9712   22.2043 C    0  0  0  0  0  0  0  0  0  0  0  0
   10.3475   15.1184   21.1654 C    0  0  0  0  0  0  0  0  0  0  0  0
   10.3329   15.6777   19.7463 C    0  0  0  0  0  0  0  0  0  0  0  0
   10.6665   14.8054   18.7773 N    0  0  0  0  0  0  0  0  0  0  0  0
    9.9724   16.7974   19.4459 O    0  0  0  0  0  0  0  0  0  0  0  0
    8.9596   14.8878   21.7924 C    0  0  0  0  0  0  0  0  0  0  0  0
    9.9227    8.5086   22.7313 H    0  0  0  0  0  0  0  0  0  0  0  0
    8.1986    8.3102   23.0255 H    0  0  0  0  0  0  0  0  0  0  0  0
    9.3762    8.1581   24.3783 H    0  0  0  0  0  0  0  0  0  0  0  0
    7.4150    8.7472   25.5293 H    0  0  0  0  0  0  0  0  0  0  0  0
    5.6311    9.1919   27.1222 H    0  0  0  0  0  0  0  0  0  0  0  0
    5.5375   13.3303   25.8959 H    0  0  0  0  0  0  0  0  0  0  0  0
    7.5166   12.6623   22.8312 H    0  0  0  0  0  0  0  0  0  0  0  0
    5.9700   14.7816   24.2355 H    0  0  0  0  0  0  0  0  0  0  0  0
    1.9813   13.8986   23.1516 H    0  0  0  0  0  0  0  0  0  0  0  0
    2.5878   13.0535   21.7211 H    0  0  0  0  0  0  0  0  0  0  0  0
    1.2154   14.1387   21.5840 H    0  0  0  0  0  0  0  0  0  0  0  0
    2.4915   15.6838   19.7092 H    0  0  0  0  0  0  0  0  0  0  0  0
    3.6775   14.3850   19.7864 H    0  0  0  0  0  0  0  0  0  0  0  0
    4.1882   16.0552   20.0314 H    0  0  0  0  0  0  0  0  0  0  0  0
    1.5421   16.7261   21.8226 H    0  0  0  0  0  0  0  0  0  0  0  0
    3.1515   17.3766   22.1219 H    0  0  0  0  0  0  0  0  0  0  0  0
    2.3097   16.4726   23.3833 H    0  0  0  0  0  0  0  0  0  0  0  0
   11.1853   14.8698   24.0680 H    0  0  0  0  0  0  0  0  0  0  0  0
   10.2223   16.3562   24.1717 H    0  0  0  0  0  0  0  0  0  0  0  0
   12.1613   15.7987   22.1722 H    0  0  0  0  0  0  0  0  0  0  0  0
   10.8967   17.0426   22.0574 H    0  0  0  0  0  0  0  0  0  0  0  0
   10.8552   14.1482   21.1485 H    0  0  0  0  0  0  0  0  0  0  0  0
   10.6739   15.1109   17.8109 H    0  0  0  0  0  0  0  0  0  0  0  0
   10.8394   13.8251   19.0027 H    0  0  0  0  0  0  0  0  0  0  0  0
    8.5109   14.0040   21.3331 H    0  0  0  0  0  0  0  0  0  0  0  0
    8.2814   15.7314   21.6234 H    0  0  0  0  0  0  0  0  0  0  0  0
  9 10  1  0  0  0  0
  8  9  2  0  0  0  0
  6  8  1  0  0  0  0
  5  6  2  0  0  0  0
  4  5  1  0  0  0  0
  3  4  2  0  0  0  0
  2  3  1  0  0  0  0
  1  2  1  0  0  0  0
 29  1  1  0  0  0  0
 30  1  1  0  0  0  0
 31  1  1  0  0  0  0
 32  4  1  0  0  0  0
 33  5  1  0  0  0  0
  7  6  1  0  0  0  0
 34  8  1  0  0  0  0
 11 10  1  0  0  0  0
 19 10  1  0  0  0  0
 35 10  1  0  0  0  0
 12 11  1  0  0  0  0
 36 11  1  0  0  0  0
 13 12  2  0  0  0  0
 14 12  1  0  0  0  0
 15 14  1  0  0  0  0
 16 15  1  0  0  0  0
 17 15  1  0  0  0  0
 18 15  1  0  0  0  0
 37 16  1  0  0  0  0
 38 16  1  0  0  0  0
 39 16  1  0  0  0  0
 40 17  1  0  0  0  0
 41 17  1  0  0  0  0
 42 17  1  0  0  0  0
 43 18  1  0  0  0  0
 44 18  1  0  0  0  0
 45 18  1  0  0  0  0
 20 19  2  0  0  0  0
 21 19  1  0  0  0  0
 22 21  1  0  0  0  0
 23 22  1  0  0  0  0
 46 22  1  0  0  0  0
 47 22  1  0  0  0  0
 24 23  1  0  0  0  0
 48 23  1  0  0  0  0
 49 23  1  0  0  0  0
 25 24  1  0  0  0  0
 28 24  1  0  0  0  0
 50 24  1  0  0  0  0
 26 25  1  0  0  0  0
 27 25  2  0  0  0  0
 51 26  1  0  0  0  0
 52 26  1  0  0  0  0
 53 28  1  0  0  0  0
 54 28  1  0  0  0  0
  9  3  1  0  0  0  0
 28 21  1  0  0  0  0
M  END
>  <FittedScore>
-38.36

$$$$
