A71EV2A-x5891a_best-RMSD
  FITTED

 54 55     0  0  0  0  0  0  0999 V2000
    9.1993    8.7686   23.4540 C    0  0  0  0  0  0  0  0  0  0  0  0
    9.0198   10.5554   23.7279 S    0  0  0  0  0  0  0  0  0  0  0  0
    7.5621   10.8561   24.7412 C    0  0  0  0  0  0  0  0  0  0  0  0
    7.0616    9.8385   25.5800 C    0  0  0  0  0  0  0  0  0  0  0  0
    6.0594   10.1062   26.5209 C    0  0  0  0  0  0  0  0  0  0  0  0
    5.5543   11.4066   26.6405 C    0  0  0  0  0  0  0  0  0  0  0  0
    4.3068   11.8343   28.0095 BR   0  0  0  0  0  0  0  0  0  0  0  0
    5.9943   12.4170   25.7760 C    0  0  0  0  0  0  0  0  0  0  0  0
    6.9524   12.1432   24.7712 C    0  0  0  0  0  0  0  0  0  0  0  0
    7.3612   13.2452   23.7629 C    0  0  0  0  0  0  0  0  0  0  0  0
    6.2619   14.2090   23.5121 N    0  0  0  0  0  0  0  0  0  0  0  0
    5.3399   14.1387   22.5294 C    0  0  0  0  0  0  0  0  0  0  0  0
    5.3788   13.3323   21.6178 O    0  0  0  0  0  0  0  0  0  0  0  0
    4.3656   15.0645   22.7029 O    0  0  0  0  0  0  0  0  0  0  0  0
    3.0344   15.1398   22.0754 C    0  0  0  0  0  0  0  0  0  0  0  0
    2.4281   16.4534   22.6553 C    0  0  0  0  0  0  0  0  0  0  0  0
    2.1643   13.9153   22.5020 C    0  0  0  0  0  0  0  0  0  0  0  0
    3.1275   15.2513   20.5206 C    0  0  0  0  0  0  0  0  0  0  0  0
    8.6634   13.9580   24.1541 C    0  0  0  0  0  0  0  0  0  0  0  0
    9.1727   13.7494   25.2422 O    0  0  0  0  0  0  0  0  0  0  0  0
    9.3175   14.7357   23.2274 N    0  0  0  0  0  0  0  0  0  0  0  0
   10.6284   15.3944   23.4789 C    0  0  0  0  0  0  0  0  0  0  0  0
   11.1734   15.9284   22.1410 C    0  0  0  0  0  0  0  0  0  0  0  0
   10.3920   15.0867   21.1256 C    0  0  0  0  0  0  0  0  0  0  0  0
   10.3442   15.6239   19.7031 C    0  0  0  0  0  0  0  0  0  0  0  0
   10.6856   14.7349   18.7556 N    0  0  0  0  0  0  0  0  0  0  0  0
    9.8936   16.7090   19.3973 O    0  0  0  0  0  0  0  0  0  0  0  0
    9.0112   14.9127   21.7835 C    0  0  0  0  0  0  0  0  0  0  0  0
    9.5023    8.2621   24.3724 H    0  0  0  0  0  0  0  0  0  0  0  0
    9.9828    8.6220   22.7086 H    0  0  0  0  0  0  0  0  0  0  0  0
    8.2625    8.3577   23.0717 H    0  0  0  0  0  0  0  0  0  0  0  0
    7.4844    8.8392   25.5695 H    0  0  0  0  0  0  0  0  0  0  0  0
    5.7234    9.3052   27.1808 H    0  0  0  0  0  0  0  0  0  0  0  0
    5.5818   13.4178   25.8891 H    0  0  0  0  0  0  0  0  0  0  0  0
    7.5408   12.7231   22.8259 H    0  0  0  0  0  0  0  0  0  0  0  0
    6.0775   14.8863   24.2494 H    0  0  0  0  0  0  0  0  0  0  0  0
    3.0107   17.3288   22.3524 H    0  0  0  0  0  0  0  0  0  0  0  0
    2.4021   16.4395   23.7494 H    0  0  0  0  0  0  0  0  0  0  0  0
    1.4040   16.6080   22.3073 H    0  0  0  0  0  0  0  0  0  0  0  0
    1.2112   13.9094   21.9636 H    0  0  0  0  0  0  0  0  0  0  0  0
    1.9401   13.9240   23.5729 H    0  0  0  0  0  0  0  0  0  0  0  0
    2.6591   12.9667   22.2824 H    0  0  0  0  0  0  0  0  0  0  0  0
    2.1745   15.5648   20.0824 H    0  0  0  0  0  0  0  0  0  0  0  0
    3.3903   14.2972   20.0598 H    0  0  0  0  0  0  0  0  0  0  0  0
    3.8879   15.9765   20.2244 H    0  0  0  0  0  0  0  0  0  0  0  0
   11.3383   14.6673   23.8990 H    0  0  0  0  0  0  0  0  0  0  0  0
   10.5045   16.2106   24.1985 H    0  0  0  0  0  0  0  0  0  0  0  0
   12.2508   15.7771   22.0496 H    0  0  0  0  0  0  0  0  0  0  0  0
   10.9610   16.9967   22.0410 H    0  0  0  0  0  0  0  0  0  0  0  0
   10.8682   14.0901   21.1204 H    0  0  0  0  0  0  0  0  0  0  0  0
   10.6771   15.0093   17.7826 H    0  0  0  0  0  0  0  0  0  0  0  0
   10.8492   13.7579   19.0004 H    0  0  0  0  0  0  0  0  0  0  0  0
    8.5196   14.0571   21.3209 H    0  0  0  0  0  0  0  0  0  0  0  0
    8.3607   15.7863   21.6406 H    0  0  0  0  0  0  0  0  0  0  0  0
  9 10  1  0  0  0  0
  8  9  2  0  0  0  0
  6  8  1  0  0  0  0
  5  6  2  0  0  0  0
  4  5  1  0  0  0  0
  3  4  2  0  0  0  0
  2  3  1  0  0  0  0
  1  2  1  0  0  0  0
 29  1  1  0  0  0  0
 30  1  1  0  0  0  0
 31  1  1  0  0  0  0
 32  4  1  0  0  0  0
 33  5  1  0  0  0  0
  7  6  1  0  0  0  0
 34  8  1  0  0  0  0
 11 10  1  0  0  0  0
 19 10  1  0  0  0  0
 35 10  1  0  0  0  0
 12 11  1  0  0  0  0
 36 11  1  0  0  0  0
 13 12  2  0  0  0  0
 14 12  1  0  0  0  0
 15 14  1  0  0  0  0
 16 15  1  0  0  0  0
 17 15  1  0  0  0  0
 18 15  1  0  0  0  0
 37 16  1  0  0  0  0
 38 16  1  0  0  0  0
 39 16  1  0  0  0  0
 40 17  1  0  0  0  0
 41 17  1  0  0  0  0
 42 17  1  0  0  0  0
 43 18  1  0  0  0  0
 44 18  1  0  0  0  0
 45 18  1  0  0  0  0
 20 19  2  0  0  0  0
 21 19  1  0  0  0  0
 22 21  1  0  0  0  0
 23 22  1  0  0  0  0
 46 22  1  0  0  0  0
 47 22  1  0  0  0  0
 24 23  1  0  0  0  0
 48 23  1  0  0  0  0
 49 23  1  0  0  0  0
 25 24  1  0  0  0  0
 28 24  1  0  0  0  0
 50 24  1  0  0  0  0
 26 25  1  0  0  0  0
 27 25  2  0  0  0  0
 51 26  1  0  0  0  0
 52 26  1  0  0  0  0
 53 28  1  0  0  0  0
 54 28  1  0  0  0  0
  9  3  1  0  0  0  0
 28 21  1  0  0  0  0
M  END
>  <FittedScore>
-37.78

$$$$
