A71EV2A-x3982a_lowest-energy
  FITTED

 46 48     0  0  0  0  0  0  0999 V2000
    6.9922   13.1414   22.5582 O    0  0  0  0  0  0  0  0  0  0  0  0
    7.7693   13.6985   23.3187 C    0  0  0  0  0  0  0  0  0  0  0  0
    8.4621   14.8290   22.9286 N    0  0  0  0  0  0  0  0  0  0  0  0
    9.1618   15.8147   23.8235 C    0  0  0  0  0  0  0  0  0  0  0  0
   10.6830   15.8969   23.5180 C    0  0  0  0  0  0  0  0  0  0  0  0
   10.9382   16.2828   22.0357 C    0  0  0  0  0  0  0  0  0  0  0  0
    8.6114   15.2497   21.5010 C    0  0  0  0  0  0  0  0  0  0  0  0
   10.1060   15.3897   21.0650 C    0  0  0  0  0  0  0  0  0  0  0  0
   10.2203   15.8822   19.6258 C    0  0  0  0  0  0  0  0  0  0  0  0
    9.7502   16.9306   19.2291 O    0  0  0  0  0  0  0  0  0  0  0  0
   10.6955   14.9839   18.7392 N    0  0  0  0  0  0  0  0  0  0  0  0
    8.0517   13.0617   24.7003 C    0  0  0  0  0  0  0  0  0  0  0  0
    8.2799   11.5408   24.5651 C    0  0  0  0  0  0  0  0  0  0  0  0
    9.3797   11.1035   23.7950 C    0  0  0  0  0  0  0  0  0  0  0  0
    9.6064    9.7409   23.5778 C    0  0  0  0  0  0  0  0  0  0  0  0
    8.7409    8.7846   24.1212 C    0  0  0  0  0  0  0  0  0  0  0  0
    7.6590    9.2034   24.9068 C    0  0  0  0  0  0  0  0  0  0  0  0
    7.4325   10.5663   25.1361 C    0  0  0  0  0  0  0  0  0  0  0  0
    7.0089   13.5208   25.7468 C    0  0  0  0  0  0  0  0  0  0  0  0
    7.4368   14.0549   26.9796 C    0  0  0  0  0  0  0  0  0  0  0  0
    6.5092   14.4437   27.9566 C    0  0  0  0  0  0  0  0  0  0  0  0
    5.1336   14.3144   27.7122 C    0  0  0  0  0  0  0  0  0  0  0  0
    4.6905   13.7991   26.4869 C    0  0  0  0  0  0  0  0  0  0  0  0
    5.6192   13.4047   25.5129 C    0  0  0  0  0  0  0  0  0  0  0  0
    8.7150   16.8017   23.6756 H    0  0  0  0  0  0  0  0  0  0  0  0
    9.0112   15.6242   24.8828 H    0  0  0  0  0  0  0  0  0  0  0  0
   11.1496   16.6353   24.1701 H    0  0  0  0  0  0  0  0  0  0  0  0
   11.1527   14.9329   23.7361 H    0  0  0  0  0  0  0  0  0  0  0  0
   10.6973   17.3406   21.8874 H    0  0  0  0  0  0  0  0  0  0  0  0
   12.0016   16.1732   21.8079 H    0  0  0  0  0  0  0  0  0  0  0  0
    8.0845   16.1981   21.3554 H    0  0  0  0  0  0  0  0  0  0  0  0
    8.1321   14.5472   20.8096 H    0  0  0  0  0  0  0  0  0  0  0  0
   10.5367   14.3816   21.1205 H    0  0  0  0  0  0  0  0  0  0  0  0
   10.6741   15.2238   17.7575 H    0  0  0  0  0  0  0  0  0  0  0  0
   10.8778   14.0102   19.0121 H    0  0  0  0  0  0  0  0  0  0  0  0
    9.0325   13.3957   25.0504 H    0  0  0  0  0  0  0  0  0  0  0  0
   10.0625   11.8284   23.3544 H    0  0  0  0  0  0  0  0  0  0  0  0
   10.4520    9.4243   22.9735 H    0  0  0  0  0  0  0  0  0  0  0  0
    8.9079    7.7253   23.9306 H    0  0  0  0  0  0  0  0  0  0  0  0
    6.9797    8.4663   25.3322 H    0  0  0  0  0  0  0  0  0  0  0  0
    6.5757   10.8413   25.7384 H    0  0  0  0  0  0  0  0  0  0  0  0
    8.4981   14.1578   27.1952 H    0  0  0  0  0  0  0  0  0  0  0  0
    6.8572   14.8431   28.9057 H    0  0  0  0  0  0  0  0  0  0  0  0
    4.4139   14.6149   28.4705 H    0  0  0  0  0  0  0  0  0  0  0  0
    3.6268   13.7040   26.2862 H    0  0  0  0  0  0  0  0  0  0  0  0
    5.2456   12.9919   24.5794 H    0  0  0  0  0  0  0  0  0  0  0  0
  2  1  2  0  0  0  0
  3  2  1  0  0  0  0
  4  3  1  0  0  0  0
 25  4  1  0  0  0  0
 26  4  1  0  0  0  0
  5  4  1  0  0  0  0
 27  5  1  0  0  0  0
 28  5  1  0  0  0  0
  6  5  1  0  0  0  0
 29  6  1  0  0  0  0
 30  6  1  0  0  0  0
  7  3  1  0  0  0  0
 31  7  1  0  0  0  0
 32  7  1  0  0  0  0
  8  6  1  0  0  0  0
  9  8  1  0  0  0  0
 33  8  1  0  0  0  0
 10  9  2  0  0  0  0
 11  9  1  0  0  0  0
 34 11  1  0  0  0  0
 35 11  1  0  0  0  0
 12  2  1  0  0  0  0
 36 12  1  0  0  0  0
 13 12  1  0  0  0  0
 18 13  2  0  0  0  0
 14 13  1  0  0  0  0
 37 14  1  0  0  0  0
 15 14  2  0  0  0  0
 38 15  1  0  0  0  0
 16 15  1  0  0  0  0
 39 16  1  0  0  0  0
 17 16  2  0  0  0  0
 40 17  1  0  0  0  0
 41 18  1  0  0  0  0
 19 12  1  0  0  0  0
 24 19  2  0  0  0  0
 20 19  1  0  0  0  0
 42 20  1  0  0  0  0
 21 20  2  0  0  0  0
 43 21  1  0  0  0  0
 22 21  1  0  0  0  0
 44 22  1  0  0  0  0
 23 22  2  0  0  0  0
 45 23  1  0  0  0  0
 46 24  1  0  0  0  0
  8  7  1  0  0  0  0
 18 17  1  0  0  0  0
 24 23  1  0  0  0  0
M  END
>  <FittedScore>
-35.17

$$$$
