A71EV2A-x3982a_best-RMSD
  FITTED

 46 48     0  0  0  0  0  0  0999 V2000
    7.3370   13.1680   22.6687 O    0  0  0  0  0  0  0  0  0  0  0  0
    8.1818   13.6595   23.4061 C    0  0  0  0  0  0  0  0  0  0  0  0
    8.9707   14.7155   22.9790 N    0  0  0  0  0  0  0  0  0  0  0  0
    9.6505   15.7322   23.8594 C    0  0  0  0  0  0  0  0  0  0  0  0
   11.0995   16.0997   23.4242 C    0  0  0  0  0  0  0  0  0  0  0  0
   11.1656   16.5470   21.9372 C    0  0  0  0  0  0  0  0  0  0  0  0
    9.0264   15.1492   21.5435 C    0  0  0  0  0  0  0  0  0  0  0  0
   10.4564   15.5127   21.0145 C    0  0  0  0  0  0  0  0  0  0  0  0
   10.3858   16.0048   19.5637 C    0  0  0  0  0  0  0  0  0  0  0  0
    9.6602   16.9076   19.1936 O    0  0  0  0  0  0  0  0  0  0  0  0
   11.1592   15.3695   18.6635 N    0  0  0  0  0  0  0  0  0  0  0  0
    8.3438   13.0649   24.8281 C    0  0  0  0  0  0  0  0  0  0  0  0
    8.3715   11.5183   24.7690 C    0  0  0  0  0  0  0  0  0  0  0  0
    7.3637   10.6885   25.3103 C    0  0  0  0  0  0  0  0  0  0  0  0
    7.4011    9.3008   25.1192 C    0  0  0  0  0  0  0  0  0  0  0  0
    8.4504    8.7123   24.3987 C    0  0  0  0  0  0  0  0  0  0  0  0
    9.4797    9.5132   23.8899 C    0  0  0  0  0  0  0  0  0  0  0  0
    9.4374   10.9019   24.0746 C    0  0  0  0  0  0  0  0  0  0  0  0
    7.3471   13.7244   25.8096 C    0  0  0  0  0  0  0  0  0  0  0  0
    7.8193   14.3961   26.9593 C    0  0  0  0  0  0  0  0  0  0  0  0
    6.9273   15.0351   27.8343 C    0  0  0  0  0  0  0  0  0  0  0  0
    5.5501   15.0148   27.5763 C    0  0  0  0  0  0  0  0  0  0  0  0
    5.0636   14.3534   26.4387 C    0  0  0  0  0  0  0  0  0  0  0  0
    5.9562   13.7211   25.5619 C    0  0  0  0  0  0  0  0  0  0  0  0
    9.0372   16.6390   23.8654 H    0  0  0  0  0  0  0  0  0  0  0  0
    9.7028   15.4350   24.9045 H    0  0  0  0  0  0  0  0  0  0  0  0
   11.4758   16.9044   24.0609 H    0  0  0  0  0  0  0  0  0  0  0  0
   11.7608   15.2426   23.5763 H    0  0  0  0  0  0  0  0  0  0  0  0
   10.7044   17.5349   21.8321 H    0  0  0  0  0  0  0  0  0  0  0  0
   12.2110   16.6569   21.6302 H    0  0  0  0  0  0  0  0  0  0  0  0
    8.3480   16.0017   21.4268 H    0  0  0  0  0  0  0  0  0  0  0  0
    8.6371   14.3711   20.8810 H    0  0  0  0  0  0  0  0  0  0  0  0
   11.0457   14.5877   21.0569 H    0  0  0  0  0  0  0  0  0  0  0  0
   11.8758   14.7055   18.9407 H    0  0  0  0  0  0  0  0  0  0  0  0
   10.9319   15.4568   17.6790 H    0  0  0  0  0  0  0  0  0  0  0  0
    9.3492   13.2819   25.1951 H    0  0  0  0  0  0  0  0  0  0  0  0
    6.5305   11.0997   25.8690 H    0  0  0  0  0  0  0  0  0  0  0  0
    6.6095    8.6769   25.5297 H    0  0  0  0  0  0  0  0  0  0  0  0
    8.4729    7.6329   24.2466 H    0  0  0  0  0  0  0  0  0  0  0  0
   10.3013    9.0595   23.3390 H    0  0  0  0  0  0  0  0  0  0  0  0
   10.2396   11.5030   23.6583 H    0  0  0  0  0  0  0  0  0  0  0  0
    8.8832   14.4297   27.1831 H    0  0  0  0  0  0  0  0  0  0  0  0
    7.3076   15.5537   28.7113 H    0  0  0  0  0  0  0  0  0  0  0  0
    4.8582   15.5103   28.2542 H    0  0  0  0  0  0  0  0  0  0  0  0
    3.9958   14.3361   26.2318 H    0  0  0  0  0  0  0  0  0  0  0  0
    5.5528   13.2140   24.6898 H    0  0  0  0  0  0  0  0  0  0  0  0
  2  1  2  0  0  0  0
  3  2  1  0  0  0  0
  4  3  1  0  0  0  0
 25  4  1  0  0  0  0
 26  4  1  0  0  0  0
  5  4  1  0  0  0  0
 27  5  1  0  0  0  0
 28  5  1  0  0  0  0
  6  5  1  0  0  0  0
 29  6  1  0  0  0  0
 30  6  1  0  0  0  0
  7  3  1  0  0  0  0
 31  7  1  0  0  0  0
 32  7  1  0  0  0  0
  8  6  1  0  0  0  0
  9  8  1  0  0  0  0
 33  8  1  0  0  0  0
 10  9  2  0  0  0  0
 11  9  1  0  0  0  0
 34 11  1  0  0  0  0
 35 11  1  0  0  0  0
 12  2  1  0  0  0  0
 36 12  1  0  0  0  0
 13 12  1  0  0  0  0
 18 13  2  0  0  0  0
 14 13  1  0  0  0  0
 37 14  1  0  0  0  0
 15 14  2  0  0  0  0
 38 15  1  0  0  0  0
 16 15  1  0  0  0  0
 39 16  1  0  0  0  0
 17 16  2  0  0  0  0
 40 17  1  0  0  0  0
 41 18  1  0  0  0  0
 19 12  1  0  0  0  0
 24 19  2  0  0  0  0
 20 19  1  0  0  0  0
 42 20  1  0  0  0  0
 21 20  2  0  0  0  0
 43 21  1  0  0  0  0
 22 21  1  0  0  0  0
 44 22  1  0  0  0  0
 23 22  2  0  0  0  0
 45 23  1  0  0  0  0
 46 24  1  0  0  0  0
  8  7  1  0  0  0  0
 18 17  1  0  0  0  0
 24 23  1  0  0  0  0
M  END
>  <FittedScore>
-32.66

$$$$
