A71EV2A-x5427a_lowest-energy
  FITTED

 33 34     0  0  0  0  0  0  0999 V2000
    6.8212   14.0032   24.9284 CL   0  0  0  0  0  0  0  0  0  0  0  0
    7.0649   12.2861   25.0722 C    0  0  0  0  0  0  0  0  0  0  0  0
    6.2391   11.6195   25.9899 C    0  0  0  0  0  0  0  0  0  0  0  0
    6.3136   10.2299   26.1233 C    0  0  0  0  0  0  0  0  0  0  0  0
    7.2270    9.5105   25.3467 C    0  0  0  0  0  0  0  0  0  0  0  0
    8.0950   10.1578   24.4569 C    0  0  0  0  0  0  0  0  0  0  0  0
    9.2571    9.1537   23.6356 CL   0  0  0  0  0  0  0  0  0  0  0  0
    8.0041   11.5627   24.2880 C    0  0  0  0  0  0  0  0  0  0  0  0
    8.8213   12.2923   23.2125 C    0  0  0  0  0  0  0  0  0  0  0  0
    9.9050   13.2394   23.7311 C    0  0  0  0  0  0  0  0  0  0  0  0
   10.5281   12.9586   24.7376 O    0  0  0  0  0  0  0  0  0  0  0  0
   10.1693   14.3761   23.0083 N    0  0  0  0  0  0  0  0  0  0  0  0
   11.1157   15.4611   23.3738 C    0  0  0  0  0  0  0  0  0  0  0  0
   11.4097   16.2870   22.0999 C    0  0  0  0  0  0  0  0  0  0  0  0
    9.7327   14.6528   21.6295 C    0  0  0  0  0  0  0  0  0  0  0  0
   10.9295   15.3530   20.9867 C    0  0  0  0  0  0  0  0  0  0  0  0
   10.5855   15.9893   19.6534 C    0  0  0  0  0  0  0  0  0  0  0  0
    9.6456   16.7370   19.4697 O    0  0  0  0  0  0  0  0  0  0  0  0
   11.3045   15.5335   18.6182 N    0  0  0  0  0  0  0  0  0  0  0  0
    5.5250   12.1782   26.5929 H    0  0  0  0  0  0  0  0  0  0  0  0
    5.6655    9.7120   26.8263 H    0  0  0  0  0  0  0  0  0  0  0  0
    7.2804    8.4298   25.4722 H    0  0  0  0  0  0  0  0  0  0  0  0
    9.2915   11.6180   22.4973 H    0  0  0  0  0  0  0  0  0  0  0  0
    8.0741   12.8162   22.6117 H    0  0  0  0  0  0  0  0  0  0  0  0
   10.6767   16.1016   24.1467 H    0  0  0  0  0  0  0  0  0  0  0  0
   12.0477   15.0434   23.7685 H    0  0  0  0  0  0  0  0  0  0  0  0
   10.8447   17.2245   22.1040 H    0  0  0  0  0  0  0  0  0  0  0  0
   12.4723   16.5186   22.0002 H    0  0  0  0  0  0  0  0  0  0  0  0
    8.8281   15.2721   21.6417 H    0  0  0  0  0  0  0  0  0  0  0  0
    9.5266   13.7491   21.0483 H    0  0  0  0  0  0  0  0  0  0  0  0
   11.7158   14.5969   20.8433 H    0  0  0  0  0  0  0  0  0  0  0  0
   12.0504   14.8599   18.7500 H    0  0  0  0  0  0  0  0  0  0  0  0
   11.0561   15.8113   17.6793 H    0  0  0  0  0  0  0  0  0  0  0  0
  9 10  1  0  0  0  0
  8  9  1  0  0  0  0
  6  8  2  0  0  0  0
  5  6  1  0  0  0  0
  4  5  2  0  0  0  0
  3  4  1  0  0  0  0
  2  3  2  0  0  0  0
  1  2  1  0  0  0  0
 20  3  1  0  0  0  0
 21  4  1  0  0  0  0
 22  5  1  0  0  0  0
  7  6  1  0  0  0  0
 23  9  1  0  0  0  0
 24  9  1  0  0  0  0
 11 10  2  0  0  0  0
 12 10  1  0  0  0  0
 13 12  1  0  0  0  0
 25 13  1  0  0  0  0
 26 13  1  0  0  0  0
 14 13  1  0  0  0  0
 27 14  1  0  0  0  0
 28 14  1  0  0  0  0
 15 12  1  0  0  0  0
 29 15  1  0  0  0  0
 30 15  1  0  0  0  0
 16 14  1  0  0  0  0
 17 16  1  0  0  0  0
 31 16  1  0  0  0  0
 18 17  2  0  0  0  0
 19 17  1  0  0  0  0
 32 19  1  0  0  0  0
 33 19  1  0  0  0  0
  8  2  1  0  0  0  0
 16 15  1  0  0  0  0
M  END
>  <FittedScore>
-32.58

$$$$
