A71EV2A-x5427a_best-RMSD
  FITTED

 33 34     0  0  0  0  0  0  0999 V2000
    8.9553    9.7569   23.9556 CL   0  0  0  0  0  0  0  0  0  0  0  0
    7.6729   10.6024   24.7748 C    0  0  0  0  0  0  0  0  0  0  0  0
    6.9168    9.8555   25.6893 C    0  0  0  0  0  0  0  0  0  0  0  0
    5.9365   10.4614   26.4816 C    0  0  0  0  0  0  0  0  0  0  0  0
    5.6702   11.8239   26.3292 C    0  0  0  0  0  0  0  0  0  0  0  0
    6.3654   12.5790   25.3728 C    0  0  0  0  0  0  0  0  0  0  0  0
    5.8574   14.2281   25.1849 CL   0  0  0  0  0  0  0  0  0  0  0  0
    7.3809   11.9794   24.5802 C    0  0  0  0  0  0  0  0  0  0  0  0
    8.1227   12.8089   23.5145 C    0  0  0  0  0  0  0  0  0  0  0  0
    9.2965   13.6572   24.0315 C    0  0  0  0  0  0  0  0  0  0  0  0
    9.7172   13.5232   25.1699 O    0  0  0  0  0  0  0  0  0  0  0  0
    9.8955   14.5278   23.1512 N    0  0  0  0  0  0  0  0  0  0  0  0
   11.0819   15.3704   23.4374 C    0  0  0  0  0  0  0  0  0  0  0  0
   11.5179   16.0616   22.1269 C    0  0  0  0  0  0  0  0  0  0  0  0
    9.5366   14.7508   21.7356 C    0  0  0  0  0  0  0  0  0  0  0  0
   10.8287   15.2194   21.0450 C    0  0  0  0  0  0  0  0  0  0  0  0
   10.5867   15.9192   19.7131 C    0  0  0  0  0  0  0  0  0  0  0  0
    9.7126   16.7409   19.5329 O    0  0  0  0  0  0  0  0  0  0  0  0
   11.3451   15.4834   18.6886 N    0  0  0  0  0  0  0  0  0  0  0  0
    7.1168    8.7955   25.8183 H    0  0  0  0  0  0  0  0  0  0  0  0
    5.3825    9.8760   27.2116 H    0  0  0  0  0  0  0  0  0  0  0  0
    4.9063   12.2931   26.9434 H    0  0  0  0  0  0  0  0  0  0  0  0
    8.4904   12.1575   22.7211 H    0  0  0  0  0  0  0  0  0  0  0  0
    7.4030   13.4452   22.9953 H    0  0  0  0  0  0  0  0  0  0  0  0
   10.8347   16.1202   24.1951 H    0  0  0  0  0  0  0  0  0  0  0  0
   11.8961   14.7507   23.8278 H    0  0  0  0  0  0  0  0  0  0  0  0
   11.1693   17.0997   22.1062 H    0  0  0  0  0  0  0  0  0  0  0  0
   12.6059   16.0587   22.0059 H    0  0  0  0  0  0  0  0  0  0  0  0
    8.7516   15.5087   21.6885 H    0  0  0  0  0  0  0  0  0  0  0  0
    9.1801   13.8537   21.2271 H    0  0  0  0  0  0  0  0  0  0  0  0
   11.4388   14.3247   20.8823 H    0  0  0  0  0  0  0  0  0  0  0  0
   12.0786   14.8098   18.8595 H    0  0  0  0  0  0  0  0  0  0  0  0
   11.1225   15.7319   17.7316 H    0  0  0  0  0  0  0  0  0  0  0  0
  9 10  1  0  0  0  0
  8  9  1  0  0  0  0
  6  8  2  0  0  0  0
  5  6  1  0  0  0  0
  4  5  2  0  0  0  0
  3  4  1  0  0  0  0
  2  3  2  0  0  0  0
  1  2  1  0  0  0  0
 20  3  1  0  0  0  0
 21  4  1  0  0  0  0
 22  5  1  0  0  0  0
  7  6  1  0  0  0  0
 23  9  1  0  0  0  0
 24  9  1  0  0  0  0
 11 10  2  0  0  0  0
 12 10  1  0  0  0  0
 13 12  1  0  0  0  0
 25 13  1  0  0  0  0
 26 13  1  0  0  0  0
 14 13  1  0  0  0  0
 27 14  1  0  0  0  0
 28 14  1  0  0  0  0
 15 12  1  0  0  0  0
 29 15  1  0  0  0  0
 30 15  1  0  0  0  0
 16 14  1  0  0  0  0
 17 16  1  0  0  0  0
 31 16  1  0  0  0  0
 18 17  2  0  0  0  0
 19 17  1  0  0  0  0
 32 19  1  0  0  0  0
 33 19  1  0  0  0  0
  8  2  1  0  0  0  0
 16 15  1  0  0  0  0
M  END
>  <FittedScore>
-30.47

$$$$
