A71EV2A-x7316a_lowest-energy
  FITTED

 58 61     0  0  0  0  0  0  0999 V2000
    9.6188    8.6447   23.3487 C    0  0  0  0  0  0  0  0  0  0  0  0
    9.3748   10.4080   23.7368 S    0  0  0  0  0  0  0  0  0  0  0  0
    8.0047   10.5059   24.8800 C    0  0  0  0  0  0  0  0  0  0  0  0
    7.3671    9.3467   25.2063 N    0  0  0  0  0  0  0  0  0  0  0  0
    6.3019    9.4203   26.0471 C    0  0  0  0  0  0  0  0  0  0  0  0
    5.8032   10.5715   26.5631 N    0  0  0  0  0  0  0  0  0  0  0  0
    6.4046   11.7461   26.2282 C    0  0  0  0  0  0  0  0  0  0  0  0
    5.8049   12.8983   26.7039 N    0  0  0  0  0  0  0  0  0  0  0  0
    5.3516   13.0717   28.0920 C    0  0  0  0  0  0  0  0  0  0  0  0
    4.4324   14.3094   28.0624 C    0  0  0  0  0  0  0  0  0  0  0  0
    4.0800   14.5360   26.5739 C    0  0  0  0  0  0  0  0  0  0  0  0
    2.8830   13.7774   26.2082 O    0  0  0  0  0  0  0  0  0  0  0  0
    1.6398   14.3832   26.6174 C    0  0  0  0  0  0  0  0  0  0  0  0
    1.1872   13.6109   25.3705 C    0  0  0  0  0  0  0  0  0  0  0  0
    1.2824   12.8923   26.7046 C    0  0  0  0  0  0  0  0  0  0  0  0
    5.2699   13.9323   25.8084 C    0  0  0  0  0  0  0  0  0  0  0  0
    7.5652   11.7553   25.4002 C    0  0  0  0  0  0  0  0  0  0  0  0
    8.3175   13.0609   25.0748 C    0  0  0  0  0  0  0  0  0  0  0  0
    7.9987   13.6657   23.6954 C    0  0  0  0  0  0  0  0  0  0  0  0
    7.2254   13.0991   22.9428 O    0  0  0  0  0  0  0  0  0  0  0  0
    8.7080   14.7712   23.2778 N    0  0  0  0  0  0  0  0  0  0  0  0
    9.7435   15.5202   24.0666 C    0  0  0  0  0  0  0  0  0  0  0  0
   11.1735   15.3342   23.4873 C    0  0  0  0  0  0  0  0  0  0  0  0
   11.2291   15.7444   21.9933 C    0  0  0  0  0  0  0  0  0  0  0  0
   10.0872   15.0613   21.1822 C    0  0  0  0  0  0  0  0  0  0  0  0
   10.1147   15.5501   19.7403 C    0  0  0  0  0  0  0  0  0  0  0  0
   10.8094   14.7735   18.8873 N    0  0  0  0  0  0  0  0  0  0  0  0
    9.5501   16.5527   19.3491 O    0  0  0  0  0  0  0  0  0  0  0  0
    8.6961   15.2633   21.8632 C    0  0  0  0  0  0  0  0  0  0  0  0
    9.8172    8.0940   24.2700 H    0  0  0  0  0  0  0  0  0  0  0  0
   10.4792    8.5400   22.6832 H    0  0  0  0  0  0  0  0  0  0  0  0
    8.7333    8.2312   22.8612 H    0  0  0  0  0  0  0  0  0  0  0  0
    5.7960    8.4933   26.3040 H    0  0  0  0  0  0  0  0  0  0  0  0
    6.1973   13.2369   28.7632 H    0  0  0  0  0  0  0  0  0  0  0  0
    4.7913   12.2088   28.4645 H    0  0  0  0  0  0  0  0  0  0  0  0
    4.9615   15.1824   28.4561 H    0  0  0  0  0  0  0  0  0  0  0  0
    3.5475   14.1575   28.6876 H    0  0  0  0  0  0  0  0  0  0  0  0
    3.9695   15.6003   26.3313 H    0  0  0  0  0  0  0  0  0  0  0  0
    1.3219   15.2831   27.1340 H    0  0  0  0  0  0  0  0  0  0  0  0
    0.1764   13.8420   25.0441 H    0  0  0  0  0  0  0  0  0  0  0  0
    1.7441   13.2277   24.4944 H    0  0  0  0  0  0  0  0  0  0  0  0
    1.9249   11.9970   26.8519 H    0  0  0  0  0  0  0  0  0  0  0  0
    0.3327   12.6969   27.1931 H    0  0  0  0  0  0  0  0  0  0  0  0
    6.0132   14.7087   25.6094 H    0  0  0  0  0  0  0  0  0  0  0  0
    4.9598   13.5303   24.8385 H    0  0  0  0  0  0  0  0  0  0  0  0
    9.3884   12.8719   25.1568 H    0  0  0  0  0  0  0  0  0  0  0  0
    8.1245   13.8079   25.8459 H    0  0  0  0  0  0  0  0  0  0  0  0
    9.7745   15.2613   25.1251 H    0  0  0  0  0  0  0  0  0  0  0  0
    9.4914   16.5866   24.0647 H    0  0  0  0  0  0  0  0  0  0  0  0
   11.4755   14.2874   23.5923 H    0  0  0  0  0  0  0  0  0  0  0  0
   11.8871   15.9346   24.0575 H    0  0  0  0  0  0  0  0  0  0  0  0
   12.1964   15.4563   21.5759 H    0  0  0  0  0  0  0  0  0  0  0  0
   11.1549   16.8336   21.9104 H    0  0  0  0  0  0  0  0  0  0  0  0
   10.2759   13.9783   21.1943 H    0  0  0  0  0  0  0  0  0  0  0  0
   11.1147   13.8486   19.1937 H    0  0  0  0  0  0  0  0  0  0  0  0
   10.8265   15.0012   17.8975 H    0  0  0  0  0  0  0  0  0  0  0  0
    7.9383   14.7777   21.2443 H    0  0  0  0  0  0  0  0  0  0  0  0
    8.4169   16.3229   21.8623 H    0  0  0  0  0  0  0  0  0  0  0  0
 18 19  1  0  0  0  0
 17 18  1  0  0  0  0
  7 17  2  0  0  0  0
  6  7  1  0  0  0  0
  5  6  2  0  0  0  0
  4  5  1  0  0  0  0
  3  4  2  0  0  0  0
  2  3  1  0  0  0  0
  1  2  1  0  0  0  0
 30  1  1  0  0  0  0
 31  1  1  0  0  0  0
 32  1  1  0  0  0  0
 33  5  1  0  0  0  0
  8  7  1  0  0  0  0
  9  8  1  0  0  0  0
 10  9  1  0  0  0  0
 34  9  1  0  0  0  0
 35  9  1  0  0  0  0
 11 10  1  0  0  0  0
 36 10  1  0  0  0  0
 37 10  1  0  0  0  0
 12 11  1  0  0  0  0
 16 11  1  0  0  0  0
 38 11  1  0  0  0  0
 13 12  1  0  0  0  0
 14 13  1  0  0  0  0
 39 13  1  0  0  0  0
 15 14  1  0  0  0  0
 40 14  1  0  0  0  0
 41 14  1  0  0  0  0
 42 15  1  0  0  0  0
 43 15  1  0  0  0  0
 44 16  1  0  0  0  0
 45 16  1  0  0  0  0
 46 18  1  0  0  0  0
 47 18  1  0  0  0  0
 20 19  2  0  0  0  0
 21 19  1  0  0  0  0
 22 21  1  0  0  0  0
 23 22  1  0  0  0  0
 48 22  1  0  0  0  0
 49 22  1  0  0  0  0
 24 23  1  0  0  0  0
 50 23  1  0  0  0  0
 51 23  1  0  0  0  0
 25 24  1  0  0  0  0
 52 24  1  0  0  0  0
 53 24  1  0  0  0  0
 26 25  1  0  0  0  0
 29 25  1  0  0  0  0
 54 25  1  0  0  0  0
 27 26  1  0  0  0  0
 28 26  2  0  0  0  0
 55 27  1  0  0  0  0
 56 27  1  0  0  0  0
 57 29  1  0  0  0  0
 58 29  1  0  0  0  0
 15 13  1  0  0  0  0
 16  8  1  0  0  0  0
 17  3  1  0  0  0  0
 29 21  1  0  0  0  0
M  END
>  <FittedScore>
-33.36

$$$$
