A71EV2A-x6714a_best-RMSD
  FITTED

 35 37     0  0  0  0  0  0  0999 V2000
   10.9005   14.6447   18.7209 N    0  0  0  0  0  0  0  0  0  0  0  0
   10.3197   15.4428   19.6346 C    0  0  0  0  0  0  0  0  0  0  0  0
    9.5721   16.3412   19.2959 O    0  0  0  0  0  0  0  0  0  0  0  0
   10.5555   15.0055   21.0767 C    0  0  0  0  0  0  0  0  0  0  0  0
   11.4017   16.0394   21.8496 C    0  0  0  0  0  0  0  0  0  0  0  0
   11.7302   15.5074   23.2660 C    0  0  0  0  0  0  0  0  0  0  0  0
   10.6211   14.6922   23.9549 C    0  0  0  0  0  0  0  0  0  0  0  0
   10.7902   14.3528   25.1107 O    0  0  0  0  0  0  0  0  0  0  0  0
    9.5096   14.2683   23.2637 N    0  0  0  0  0  0  0  0  0  0  0  0
    8.5882   13.3436   23.8917 C    0  0  0  0  0  0  0  0  0  0  0  0
    7.6477   13.8375   24.8079 C    0  0  0  0  0  0  0  0  0  0  0  0
    6.8739   12.9458   25.5733 C    0  0  0  0  0  0  0  0  0  0  0  0
    5.9637   13.4232   26.5314 C    0  0  0  0  0  0  0  0  0  0  0  0
    5.2126   12.5870   27.3060 N    0  0  0  0  0  0  0  0  0  0  0  0
    5.3372   11.2410   27.1229 C    0  0  0  0  0  0  0  0  0  0  0  0
    6.2305   10.6856   26.1960 C    0  0  0  0  0  0  0  0  0  0  0  0
    7.0303   11.5435   25.4123 C    0  0  0  0  0  0  0  0  0  0  0  0
    7.9735   11.0464   24.4980 C    0  0  0  0  0  0  0  0  0  0  0  0
    8.1489    9.7115   24.3611 F    0  0  0  0  0  0  0  0  0  0  0  0
    8.7400   11.9505   23.7339 C    0  0  0  0  0  0  0  0  0  0  0  0
    9.6427   11.4832   22.8628 F    0  0  0  0  0  0  0  0  0  0  0  0
    9.2487   14.6852   21.8588 C    0  0  0  0  0  0  0  0  0  0  0  0
   11.2737   13.7396   19.0096 H    0  0  0  0  0  0  0  0  0  0  0  0
   10.7535   14.8156   17.7393 H    0  0  0  0  0  0  0  0  0  0  0  0
   11.1339   14.0706   21.0607 H    0  0  0  0  0  0  0  0  0  0  0  0
   10.8457   16.9785   21.9338 H    0  0  0  0  0  0  0  0  0  0  0  0
   12.3278   16.2608   21.3058 H    0  0  0  0  0  0  0  0  0  0  0  0
   11.9940   16.3593   23.8993 H    0  0  0  0  0  0  0  0  0  0  0  0
   12.6267   14.8837   23.1996 H    0  0  0  0  0  0  0  0  0  0  0  0
    7.5583   14.9122   24.9583 H    0  0  0  0  0  0  0  0  0  0  0  0
    5.8566   14.4961   26.6756 H    0  0  0  0  0  0  0  0  0  0  0  0
    4.7210   10.5703   27.7158 H    0  0  0  0  0  0  0  0  0  0  0  0
    6.3018    9.6059   26.0939 H    0  0  0  0  0  0  0  0  0  0  0  0
    8.6028   15.5674   21.8761 H    0  0  0  0  0  0  0  0  0  0  0  0
    8.6970   13.9067   21.3196 H    0  0  0  0  0  0  0  0  0  0  0  0
  7  9  1  0  0  0  0
  6  7  1  0  0  0  0
  5  6  1  0  0  0  0
  4  5  1  0  0  0  0
  2  4  1  0  0  0  0
  1  2  1  0  0  0  0
 23  1  1  0  0  0  0
 24  1  1  0  0  0  0
  3  2  2  0  0  0  0
 25  4  1  0  0  0  0
 26  5  1  0  0  0  0
 27  5  1  0  0  0  0
 28  6  1  0  0  0  0
 29  6  1  0  0  0  0
  8  7  2  0  0  0  0
 10  9  1  0  0  0  0
 22  9  1  0  0  0  0
 11 10  2  0  0  0  0
 12 11  1  0  0  0  0
 30 11  1  0  0  0  0
 13 12  2  0  0  0  0
 14 13  1  0  0  0  0
 31 13  1  0  0  0  0
 15 14  2  0  0  0  0
 16 15  1  0  0  0  0
 32 15  1  0  0  0  0
 17 16  2  0  0  0  0
 33 16  1  0  0  0  0
 18 17  1  0  0  0  0
 19 18  1  0  0  0  0
 20 18  2  0  0  0  0
 21 20  1  0  0  0  0
 34 22  1  0  0  0  0
 35 22  1  0  0  0  0
 17 12  1  0  0  0  0
 20 10  1  0  0  0  0
 22  4  1  0  0  0  0
M  END
>  <FittedScore>
-34.89

$$$$
