A71EV2A-x7263a_lowest-energy
  FITTED

 60 63     0  0  0  0  0  0  0999 V2000
    9.8389    8.4993   23.2255 C    0  0  0  0  0  0  0  0  0  0  0  0
    9.6732   10.2525   23.6728 S    0  0  0  0  0  0  0  0  0  0  0  0
    8.2833   10.3389   24.7997 C    0  0  0  0  0  0  0  0  0  0  0  0
    7.6427    9.1754   25.1073 N    0  0  0  0  0  0  0  0  0  0  0  0
    6.5978    9.2219   25.9654 C    0  0  0  0  0  0  0  0  0  0  0  0
    6.1128   10.3597   26.5147 N    0  0  0  0  0  0  0  0  0  0  0  0
    6.6930   11.5507   26.1918 C    0  0  0  0  0  0  0  0  0  0  0  0
    6.1173   12.6911   26.7333 N    0  0  0  0  0  0  0  0  0  0  0  0
    4.7988   12.8298   27.4198 C    0  0  0  0  0  0  0  0  0  0  0  0
    4.2750   14.1380   26.7174 C    0  0  0  0  0  0  0  0  0  0  0  0
    4.2369   15.3953   27.6231 C    0  0  0  0  0  0  0  0  0  0  0  0
    2.9659   14.0469   25.8478 C    0  0  0  0  0  0  0  0  0  0  0  0
    2.9278   14.6586   24.5764 C    0  0  0  0  0  0  0  0  0  0  0  0
    1.7656   14.6170   23.7906 C    0  0  0  0  0  0  0  0  0  0  0  0
    0.6189   13.9771   24.2719 C    0  0  0  0  0  0  0  0  0  0  0  0
    0.6359   13.3657   25.5335 C    0  0  0  0  0  0  0  0  0  0  0  0
    1.7981   13.3966   26.3117 C    0  0  0  0  0  0  0  0  0  0  0  0
    1.7615   12.7815   27.5041 F    0  0  0  0  0  0  0  0  0  0  0  0
    5.6456   13.8993   25.9935 C    0  0  0  0  0  0  0  0  0  0  0  0
    7.8447   11.5775   25.3486 C    0  0  0  0  0  0  0  0  0  0  0  0
    8.5940   12.8834   25.0286 C    0  0  0  0  0  0  0  0  0  0  0  0
    8.1933   13.5317   23.6926 C    0  0  0  0  0  0  0  0  0  0  0  0
    7.2783   13.0549   23.0345 O    0  0  0  0  0  0  0  0  0  0  0  0
    8.9312   14.6119   23.2479 N    0  0  0  0  0  0  0  0  0  0  0  0
   10.0219   15.3300   24.0008 C    0  0  0  0  0  0  0  0  0  0  0  0
   11.4165   15.1151   23.3537 C    0  0  0  0  0  0  0  0  0  0  0  0
   11.4079   15.5595   21.8704 C    0  0  0  0  0  0  0  0  0  0  0  0
   10.2149   14.9163   21.1022 C    0  0  0  0  0  0  0  0  0  0  0  0
   10.1957   15.4315   19.6780 C    0  0  0  0  0  0  0  0  0  0  0  0
   10.7860   14.6338   18.7668 N    0  0  0  0  0  0  0  0  0  0  0  0
    9.7063   16.4948   19.3550 O    0  0  0  0  0  0  0  0  0  0  0  0
    8.8587   15.1302   21.8472 C    0  0  0  0  0  0  0  0  0  0  0  0
   10.6929    8.3860   22.5559 H    0  0  0  0  0  0  0  0  0  0  0  0
    8.9385    8.1594   22.7080 H    0  0  0  0  0  0  0  0  0  0  0  0
   10.0111    7.8951   24.1179 H    0  0  0  0  0  0  0  0  0  0  0  0
    6.1113    8.2832   26.2226 H    0  0  0  0  0  0  0  0  0  0  0  0
    4.9010   12.9106   28.5081 H    0  0  0  0  0  0  0  0  0  0  0  0
    4.1558   11.9599   27.2618 H    0  0  0  0  0  0  0  0  0  0  0  0
    3.4209   15.3276   28.3464 H    0  0  0  0  0  0  0  0  0  0  0  0
    4.0829   16.3004   27.0294 H    0  0  0  0  0  0  0  0  0  0  0  0
    5.1644   15.5217   28.1880 H    0  0  0  0  0  0  0  0  0  0  0  0
    3.7955   15.1844   24.1893 H    0  0  0  0  0  0  0  0  0  0  0  0
    1.7537   15.0859   22.8089 H    0  0  0  0  0  0  0  0  0  0  0  0
   -0.2845   13.9460   23.6682 H    0  0  0  0  0  0  0  0  0  0  0  0
   -0.2489   12.8551   25.9032 H    0  0  0  0  0  0  0  0  0  0  0  0
    6.3502   14.7356   26.0678 H    0  0  0  0  0  0  0  0  0  0  0  0
    5.5414   13.6980   24.9241 H    0  0  0  0  0  0  0  0  0  0  0  0
    9.6672   12.6903   25.0411 H    0  0  0  0  0  0  0  0  0  0  0  0
    8.4652   13.5997   25.8408 H    0  0  0  0  0  0  0  0  0  0  0  0
   10.0903   15.0529   25.0511 H    0  0  0  0  0  0  0  0  0  0  0  0
    9.7990   16.4028   24.0267 H    0  0  0  0  0  0  0  0  0  0  0  0
   11.6978   14.0592   23.4190 H    0  0  0  0  0  0  0  0  0  0  0  0
   12.1742   15.6826   23.8992 H    0  0  0  0  0  0  0  0  0  0  0  0
   12.3507   15.2707   21.3978 H    0  0  0  0  0  0  0  0  0  0  0  0
   11.3414   16.6509   21.8150 H    0  0  0  0  0  0  0  0  0  0  0  0
   10.3827   13.8323   21.0731 H    0  0  0  0  0  0  0  0  0  0  0  0
   10.8240   14.9400   17.8038 H    0  0  0  0  0  0  0  0  0  0  0  0
   11.0333   13.6707   19.0048 H    0  0  0  0  0  0  0  0  0  0  0  0
    8.0624   14.6625   21.2608 H    0  0  0  0  0  0  0  0  0  0  0  0
    8.6081   16.1967   21.8702 H    0  0  0  0  0  0  0  0  0  0  0  0
 21 22  1  0  0  0  0
 20 21  1  0  0  0  0
  7 20  2  0  0  0  0
  6  7  1  0  0  0  0
  5  6  2  0  0  0  0
  4  5  1  0  0  0  0
  3  4  2  0  0  0  0
  2  3  1  0  0  0  0
  1  2  1  0  0  0  0
 33  1  1  0  0  0  0
 34  1  1  0  0  0  0
 35  1  1  0  0  0  0
 36  5  1  0  0  0  0
  8  7  1  0  0  0  0
  9  8  1  0  0  0  0
 10  9  1  0  0  0  0
 37  9  1  0  0  0  0
 38  9  1  0  0  0  0
 11 10  1  0  0  0  0
 12 10  1  0  0  0  0
 19 10  1  0  0  0  0
 39 11  1  0  0  0  0
 40 11  1  0  0  0  0
 41 11  1  0  0  0  0
 13 12  2  0  0  0  0
 14 13  1  0  0  0  0
 42 13  1  0  0  0  0
 15 14  2  0  0  0  0
 43 14  1  0  0  0  0
 16 15  1  0  0  0  0
 44 15  1  0  0  0  0
 17 16  2  0  0  0  0
 45 16  1  0  0  0  0
 18 17  1  0  0  0  0
 46 19  1  0  0  0  0
 47 19  1  0  0  0  0
 48 21  1  0  0  0  0
 49 21  1  0  0  0  0
 23 22  2  0  0  0  0
 24 22  1  0  0  0  0
 25 24  1  0  0  0  0
 26 25  1  0  0  0  0
 50 25  1  0  0  0  0
 51 25  1  0  0  0  0
 27 26  1  0  0  0  0
 52 26  1  0  0  0  0
 53 26  1  0  0  0  0
 28 27  1  0  0  0  0
 54 27  1  0  0  0  0
 55 27  1  0  0  0  0
 29 28  1  0  0  0  0
 32 28  1  0  0  0  0
 56 28  1  0  0  0  0
 30 29  1  0  0  0  0
 31 29  2  0  0  0  0
 57 30  1  0  0  0  0
 58 30  1  0  0  0  0
 59 32  1  0  0  0  0
 60 32  1  0  0  0  0
 17 12  1  0  0  0  0
 19  8  1  0  0  0  0
 20  3  1  0  0  0  0
 32 24  1  0  0  0  0
M  END
>  <FittedScore>
-38.22

$$$$
