A71EV2A-x3621a_best-RMSD
  FITTED

 34 35     0  0  0  0  0  0  0999 V2000
    7.5366   13.3145   22.6500 O    0  0  0  0  0  0  0  0  0  0  0  0
    8.5662   13.5401   23.2722 C    0  0  0  0  0  0  0  0  0  0  0  0
    9.6306   14.1977   22.6987 N    0  0  0  0  0  0  0  0  0  0  0  0
    9.6239   14.8066   21.3479 C    0  0  0  0  0  0  0  0  0  0  0  0
   11.0079   15.4437   21.0784 C    0  0  0  0  0  0  0  0  0  0  0  0
   11.7454   14.6914   20.1148 O    0  0  0  0  0  0  0  0  0  0  0  0
   11.7577   15.4059   22.4148 C    0  0  0  0  0  0  0  0  0  0  0  0
   10.9639   14.4499   23.3038 C    0  0  0  0  0  0  0  0  0  0  0  0
    8.6650   13.2049   24.7673 C    0  0  0  0  0  0  0  0  0  0  0  0
    7.7584   12.0652   25.2483 C    0  0  0  0  0  0  0  0  0  0  0  0
    8.0199   10.7180   24.8986 C    0  0  0  0  0  0  0  0  0  0  0  0
    9.1095   10.4501   24.0777 O    0  0  0  0  0  0  0  0  0  0  0  0
    9.4012    9.2036   23.4198 C    0  0  0  0  0  0  0  0  0  0  0  0
    6.6674   12.3660   26.0914 C    0  0  0  0  0  0  0  0  0  0  0  0
    5.8692   11.3423   26.6097 C    0  0  0  0  0  0  0  0  0  0  0  0
    6.1207   10.0120   26.2558 C    0  0  0  0  0  0  0  0  0  0  0  0
    7.1815    9.7020   25.3916 C    0  0  0  0  0  0  0  0  0  0  0  0
    9.3710   14.0428   20.6051 H    0  0  0  0  0  0  0  0  0  0  0  0
    8.8517   15.5749   21.2973 H    0  0  0  0  0  0  0  0  0  0  0  0
   10.9125   16.4752   20.7202 H    0  0  0  0  0  0  0  0  0  0  0  0
   11.6085   13.7439   20.3313 H    0  0  0  0  0  0  0  0  0  0  0  0
   12.7986   15.0726   22.3257 H    0  0  0  0  0  0  0  0  0  0  0  0
   11.7828   16.4020   22.8613 H    0  0  0  0  0  0  0  0  0  0  0  0
   11.5086   13.5088   23.4037 H    0  0  0  0  0  0  0  0  0  0  0  0
   10.8672   14.8837   24.2995 H    0  0  0  0  0  0  0  0  0  0  0  0
    9.6819   12.9218   25.0461 H    0  0  0  0  0  0  0  0  0  0  0  0
    8.4681   14.1195   25.3272 H    0  0  0  0  0  0  0  0  0  0  0  0
    8.5492    8.8875   22.8192 H    0  0  0  0  0  0  0  0  0  0  0  0
    9.6411    8.4410   24.1655 H    0  0  0  0  0  0  0  0  0  0  0  0
   10.2625    9.3451   22.7612 H    0  0  0  0  0  0  0  0  0  0  0  0
    6.4490   13.3979   26.3591 H    0  0  0  0  0  0  0  0  0  0  0  0
    5.0435   11.5798   27.2698 H    0  0  0  0  0  0  0  0  0  0  0  0
    5.4903    9.2116   26.6353 H    0  0  0  0  0  0  0  0  0  0  0  0
    7.3275    8.6598   25.1123 H    0  0  0  0  0  0  0  0  0  0  0  0
  2  9  1  0  0  0  0
  3  2  1  0  0  0  0
  8  3  1  0  0  0  0
  1  2  2  0  0  0  0
  4  3  1  0  0  0  0
 18  4  1  0  0  0  0
 19  4  1  0  0  0  0
  5  4  1  0  0  0  0
  6  5  1  0  0  0  0
 20  5  1  0  0  0  0
 21  6  1  0  0  0  0
  7  5  1  0  0  0  0
 22  7  1  0  0  0  0
 23  7  1  0  0  0  0
 24  8  1  0  0  0  0
 25  8  1  0  0  0  0
 26  9  1  0  0  0  0
 27  9  1  0  0  0  0
 10  9  1  0  0  0  0
 11 10  1  0  0  0  0
 17 11  2  0  0  0  0
 12 11  1  0  0  0  0
 13 12  1  0  0  0  0
 28 13  1  0  0  0  0
 29 13  1  0  0  0  0
 30 13  1  0  0  0  0
 14 10  2  0  0  0  0
 31 14  1  0  0  0  0
 15 14  1  0  0  0  0
 32 15  1  0  0  0  0
 16 15  2  0  0  0  0
 33 16  1  0  0  0  0
 34 17  1  0  0  0  0
  8  7  1  0  0  0  0
 17 16  1  0  0  0  0
M  END
>  <FittedScore>
-28.35

$$$$
