A71EV2A-x3621a_lowest-energy
  FITTED

 34 35     0  0  0  0  0  0  0999 V2000
    7.4273   13.3080   22.6647 O    0  0  0  0  0  0  0  0  0  0  0  0
    8.5751   13.5365   23.0042 C    0  0  0  0  0  0  0  0  0  0  0  0
    9.3973   14.3351   22.2453 N    0  0  0  0  0  0  0  0  0  0  0  0
    8.9905   15.0553   21.0210 C    0  0  0  0  0  0  0  0  0  0  0  0
   10.2561   15.5652   20.3050 C    0  0  0  0  0  0  0  0  0  0  0  0
   10.5366   14.7976   19.1246 O    0  0  0  0  0  0  0  0  0  0  0  0
   11.3929   15.4303   21.3381 C    0  0  0  0  0  0  0  0  0  0  0  0
   10.8115   14.6444   22.5221 C    0  0  0  0  0  0  0  0  0  0  0  0
    9.0968   13.0083   24.3575 C    0  0  0  0  0  0  0  0  0  0  0  0
    8.1763   11.9607   25.0170 C    0  0  0  0  0  0  0  0  0  0  0  0
    8.2984   10.5791   24.7325 C    0  0  0  0  0  0  0  0  0  0  0  0
    9.3073   10.1756   23.8638 O    0  0  0  0  0  0  0  0  0  0  0  0
    9.4506    8.8652   23.2863 C    0  0  0  0  0  0  0  0  0  0  0  0
    7.1683   12.3982   25.8953 C    0  0  0  0  0  0  0  0  0  0  0  0
    6.2759   11.4851   26.4716 C    0  0  0  0  0  0  0  0  0  0  0  0
    6.3697   10.1249   26.1660 C    0  0  0  0  0  0  0  0  0  0  0  0
    7.3807    9.6725   25.3052 C    0  0  0  0  0  0  0  0  0  0  0  0
    8.4018   14.4030   20.3707 H    0  0  0  0  0  0  0  0  0  0  0  0
    8.3491   15.8981   21.2938 H    0  0  0  0  0  0  0  0  0  0  0  0
   10.1270   16.6156   20.0192 H    0  0  0  0  0  0  0  0  0  0  0  0
   10.7506   13.8703   19.3842 H    0  0  0  0  0  0  0  0  0  0  0  0
   12.2755   14.9283   20.9284 H    0  0  0  0  0  0  0  0  0  0  0  0
   11.7107   16.4213   21.6757 H    0  0  0  0  0  0  0  0  0  0  0  0
   11.3853   13.7212   22.6453 H    0  0  0  0  0  0  0  0  0  0  0  0
   10.8947   15.2213   23.4515 H    0  0  0  0  0  0  0  0  0  0  0  0
   10.0841   12.5738   24.2298 H    0  0  0  0  0  0  0  0  0  0  0  0
    9.2395   13.8541   25.0263 H    0  0  0  0  0  0  0  0  0  0  0  0
    8.5380    8.5603   22.7655 H    0  0  0  0  0  0  0  0  0  0  0  0
    9.6739    8.1456   24.0777 H    0  0  0  0  0  0  0  0  0  0  0  0
   10.2756    8.8993   22.5773 H    0  0  0  0  0  0  0  0  0  0  0  0
    7.0696   13.4589   26.1231 H    0  0  0  0  0  0  0  0  0  0  0  0
    5.5055   11.8365   27.1531 H    0  0  0  0  0  0  0  0  0  0  0  0
    5.6638    9.4125   26.5893 H    0  0  0  0  0  0  0  0  0  0  0  0
    7.4176    8.6105   25.0818 H    0  0  0  0  0  0  0  0  0  0  0  0
  2  9  1  0  0  0  0
  3  2  1  0  0  0  0
  8  3  1  0  0  0  0
  1  2  2  0  0  0  0
  4  3  1  0  0  0  0
 18  4  1  0  0  0  0
 19  4  1  0  0  0  0
  5  4  1  0  0  0  0
  6  5  1  0  0  0  0
 20  5  1  0  0  0  0
 21  6  1  0  0  0  0
  7  5  1  0  0  0  0
 22  7  1  0  0  0  0
 23  7  1  0  0  0  0
 24  8  1  0  0  0  0
 25  8  1  0  0  0  0
 26  9  1  0  0  0  0
 27  9  1  0  0  0  0
 10  9  1  0  0  0  0
 11 10  1  0  0  0  0
 17 11  2  0  0  0  0
 12 11  1  0  0  0  0
 13 12  1  0  0  0  0
 28 13  1  0  0  0  0
 29 13  1  0  0  0  0
 30 13  1  0  0  0  0
 14 10  2  0  0  0  0
 31 14  1  0  0  0  0
 15 14  1  0  0  0  0
 32 15  1  0  0  0  0
 16 15  2  0  0  0  0
 33 16  1  0  0  0  0
 34 17  1  0  0  0  0
  8  7  1  0  0  0  0
 17 16  1  0  0  0  0
M  END
>  <FittedScore>
-27.50

$$$$
