A71EV2A-x4673b_lowest-energy
  FITTED

 39 41     0  0  0  0  0  0  0999 V2000
    9.4574    9.6681   24.3601 BR   0  0  0  0  0  0  0  0  0  0  0  0
    8.0037   10.4738   25.3321 C    0  0  0  0  0  0  0  0  0  0  0  0
    7.0021    9.5978   25.8072 C    0  0  0  0  0  0  0  0  0  0  0  0
    5.8973   10.1278   26.4779 C    0  0  0  0  0  0  0  0  0  0  0  0
    4.8372    9.4655   27.0366 O    0  0  0  0  0  0  0  0  0  0  0  0
    3.9524   10.4929   27.5831 C    0  0  0  0  0  0  0  0  0  0  0  0
    4.5659   11.7757   27.2690 O    0  0  0  0  0  0  0  0  0  0  0  0
    5.7492   11.4849   26.6487 C    0  0  0  0  0  0  0  0  0  0  0  0
    6.7207   12.3802   26.2092 C    0  0  0  0  0  0  0  0  0  0  0  0
    7.8792   11.8817   25.5613 C    0  0  0  0  0  0  0  0  0  0  0  0
    8.9010   12.9373   25.1055 C    0  0  0  0  0  0  0  0  0  0  0  0
    8.6366   13.4926   23.6970 C    0  0  0  0  0  0  0  0  0  0  0  0
    7.8330   12.9207   22.9778 O    0  0  0  0  0  0  0  0  0  0  0  0
    9.3125   14.6183   23.2594 N    0  0  0  0  0  0  0  0  0  0  0  0
   10.2917   15.4564   24.0494 C    0  0  0  0  0  0  0  0  0  0  0  0
   11.6565   15.6984   23.3370 C    0  0  0  0  0  0  0  0  0  0  0  0
   11.4950   16.1773   21.8682 C    0  0  0  0  0  0  0  0  0  0  0  0
    9.1387   15.1924   21.8802 C    0  0  0  0  0  0  0  0  0  0  0  0
   10.4863   15.2817   21.1015 C    0  0  0  0  0  0  0  0  0  0  0  0
   10.3093   15.7630   19.6567 C    0  0  0  0  0  0  0  0  0  0  0  0
    9.8120   16.8309   19.3461 O    0  0  0  0  0  0  0  0  0  0  0  0
   10.6935   14.8832   18.7115 N    0  0  0  0  0  0  0  0  0  0  0  0
    7.0732    8.5218   25.6580 H    0  0  0  0  0  0  0  0  0  0  0  0
    3.8565   10.3740   28.6680 H    0  0  0  0  0  0  0  0  0  0  0  0
    2.9624   10.4319   27.1220 H    0  0  0  0  0  0  0  0  0  0  0  0
    6.5726   13.4456   26.3649 H    0  0  0  0  0  0  0  0  0  0  0  0
    8.8726   13.7513   25.8354 H    0  0  0  0  0  0  0  0  0  0  0  0
    9.9185   12.5454   25.1675 H    0  0  0  0  0  0  0  0  0  0  0  0
    9.8255   16.4192   24.2819 H    0  0  0  0  0  0  0  0  0  0  0  0
   10.5428   15.0265   25.0176 H    0  0  0  0  0  0  0  0  0  0  0  0
   12.2332   16.4428   23.8923 H    0  0  0  0  0  0  0  0  0  0  0  0
   12.2410   14.7732   23.3541 H    0  0  0  0  0  0  0  0  0  0  0  0
   11.1612   17.2195   21.8564 H    0  0  0  0  0  0  0  0  0  0  0  0
   12.4628   16.1478   21.3620 H    0  0  0  0  0  0  0  0  0  0  0  0
    8.6912   16.1869   21.9610 H    0  0  0  0  0  0  0  0  0  0  0  0
    8.4384   14.6187   21.2694 H    0  0  0  0  0  0  0  0  0  0  0  0
   10.9005   14.2639   21.0935 H    0  0  0  0  0  0  0  0  0  0  0  0
   10.9800   13.9464   18.9761 H    0  0  0  0  0  0  0  0  0  0  0  0
   10.6127   15.1216   17.7263 H    0  0  0  0  0  0  0  0  0  0  0  0
 11 12  1  0  0  0  0
 10 11  1  0  0  0  0
  9 10  2  0  0  0  0
  8  9  1  0  0  0  0
  4  8  2  0  0  0  0
  3  4  1  0  0  0  0
  2  3  2  0  0  0  0
  1  2  1  0  0  0  0
 23  3  1  0  0  0  0
  5  4  1  0  0  0  0
  6  5  1  0  0  0  0
 24  6  1  0  0  0  0
 25  6  1  0  0  0  0
  7  6  1  0  0  0  0
 26  9  1  0  0  0  0
 27 11  1  0  0  0  0
 28 11  1  0  0  0  0
 13 12  2  0  0  0  0
 14 12  1  0  0  0  0
 15 14  1  0  0  0  0
 29 15  1  0  0  0  0
 30 15  1  0  0  0  0
 16 15  1  0  0  0  0
 31 16  1  0  0  0  0
 32 16  1  0  0  0  0
 17 16  1  0  0  0  0
 33 17  1  0  0  0  0
 34 17  1  0  0  0  0
 18 14  1  0  0  0  0
 35 18  1  0  0  0  0
 36 18  1  0  0  0  0
 19 17  1  0  0  0  0
 20 19  1  0  0  0  0
 37 19  1  0  0  0  0
 21 20  2  0  0  0  0
 22 20  1  0  0  0  0
 38 22  1  0  0  0  0
 39 22  1  0  0  0  0
  8  7  1  0  0  0  0
 10  2  1  0  0  0  0
 19 18  1  0  0  0  0
M  END
>  <FittedScore>
-34.66

$$$$
