A71EV2A-x4874b_lowest-energy
  FITTED

 36 37     0  0  0  0  0  0  0999 V2000
   10.1083   16.6736   19.0895 O    0  0  0  0  0  0  0  0  0  0  0  0
   10.4364   15.6043   19.5642 C    0  0  0  0  0  0  0  0  0  0  0  0
   10.7519   14.5951   18.7452 N    0  0  0  0  0  0  0  0  0  0  0  0
   10.3196   15.2302   21.0389 C    0  0  0  0  0  0  0  0  0  0  0  0
   11.1933   16.1558   21.9381 C    0  0  0  0  0  0  0  0  0  0  0  0
   10.9642   15.8422   23.4425 C    0  0  0  0  0  0  0  0  0  0  0  0
    9.4500   15.8434   23.7758 C    0  0  0  0  0  0  0  0  0  0  0  0
    8.8280   15.1925   21.4905 C    0  0  0  0  0  0  0  0  0  0  0  0
    8.6708   14.8629   22.9434 N    0  0  0  0  0  0  0  0  0  0  0  0
    7.9175   13.8030   23.3985 C    0  0  0  0  0  0  0  0  0  0  0  0
    7.1621   13.1893   22.6526 O    0  0  0  0  0  0  0  0  0  0  0  0
    8.1788   13.2263   24.8045 C    0  0  0  0  0  0  0  0  0  0  0  0
    7.0101   13.5758   25.7649 C    0  0  0  0  0  0  0  0  0  0  0  0
    8.5172   11.7540   24.6536 C    0  0  0  0  0  0  0  0  0  0  0  0
    7.8073   10.6998   25.1279 N    0  0  0  0  0  0  0  0  0  0  0  0
    8.2731    9.4812   24.7472 N    0  0  0  0  0  0  0  0  0  0  0  0
    9.4491    9.8946   23.9534 C    0  0  0  0  0  0  0  0  0  0  0  0
    9.5771   11.2635   23.9241 C    0  0  0  0  0  0  0  0  0  0  0  0
   10.7689   14.7606   17.7482 H    0  0  0  0  0  0  0  0  0  0  0  0
   10.8519   13.6381   19.0856 H    0  0  0  0  0  0  0  0  0  0  0  0
   10.7074   14.2114   21.1763 H    0  0  0  0  0  0  0  0  0  0  0  0
   12.2492   16.0210   21.6893 H    0  0  0  0  0  0  0  0  0  0  0  0
   10.9512   17.2063   21.7488 H    0  0  0  0  0  0  0  0  0  0  0  0
   11.3982   14.8694   23.6945 H    0  0  0  0  0  0  0  0  0  0  0  0
   11.4760   16.5924   24.0508 H    0  0  0  0  0  0  0  0  0  0  0  0
    9.3112   15.7240   24.8491 H    0  0  0  0  0  0  0  0  0  0  0  0
    9.0489   16.8460   23.5902 H    0  0  0  0  0  0  0  0  0  0  0  0
    8.2990   14.4878   20.8433 H    0  0  0  0  0  0  0  0  0  0  0  0
    8.3485   16.1573   21.3017 H    0  0  0  0  0  0  0  0  0  0  0  0
    9.0840   13.6250   25.2618 H    0  0  0  0  0  0  0  0  0  0  0  0
    7.2097   13.1868   26.7662 H    0  0  0  0  0  0  0  0  0  0  0  0
    6.0674   13.1549   25.4097 H    0  0  0  0  0  0  0  0  0  0  0  0
    6.8943   14.6592   25.8452 H    0  0  0  0  0  0  0  0  0  0  0  0
    6.9656   10.8172   25.6916 H    0  0  0  0  0  0  0  0  0  0  0  0
   10.1078    9.1748   23.4719 H    0  0  0  0  0  0  0  0  0  0  0  0
   10.3386   11.8387   23.4012 H    0  0  0  0  0  0  0  0  0  0  0  0
  7  9  1  0  0  0  0
  6  7  1  0  0  0  0
  5  6  1  0  0  0  0
  4  5  1  0  0  0  0
  2  4  1  0  0  0  0
  1  2  2  0  0  0  0
  3  2  1  0  0  0  0
 19  3  1  0  0  0  0
 20  3  1  0  0  0  0
 21  4  1  0  0  0  0
 22  5  1  0  0  0  0
 23  5  1  0  0  0  0
 24  6  1  0  0  0  0
 25  6  1  0  0  0  0
 26  7  1  0  0  0  0
 27  7  1  0  0  0  0
  8  4  1  0  0  0  0
 28  8  1  0  0  0  0
 29  8  1  0  0  0  0
 10  9  1  0  0  0  0
 11 10  2  0  0  0  0
 12 10  1  0  0  0  0
 13 12  1  0  0  0  0
 30 12  1  0  0  0  0
 31 13  1  0  0  0  0
 32 13  1  0  0  0  0
 33 13  1  0  0  0  0
 14 12  1  0  0  0  0
 18 14  2  0  0  0  0
 15 14  1  0  0  0  0
 34 15  1  0  0  0  0
 16 15  1  0  0  0  0
 17 16  2  0  0  0  0
 35 17  1  0  0  0  0
 36 18  1  0  0  0  0
  9  8  1  0  0  0  0
 18 17  1  0  0  0  0
M  END
>  <FittedScore>
-29.65

$$$$
