A71EV2A-x7570a_lowest-energy
  FITTED

 60 63     0  0  0  0  0  0  0999 V2000
    9.6696    8.5278   23.4069 C    0  0  0  0  0  0  0  0  0  0  0  0
    9.5222   10.2896   23.8240 S    0  0  0  0  0  0  0  0  0  0  0  0
    8.1190   10.4557   24.9274 C    0  0  0  0  0  0  0  0  0  0  0  0
    7.4041    9.3324   25.2212 N    0  0  0  0  0  0  0  0  0  0  0  0
    6.3246    9.4478   26.0382 C    0  0  0  0  0  0  0  0  0  0  0  0
    5.8856   10.6083   26.5875 N    0  0  0  0  0  0  0  0  0  0  0  0
    6.5717   11.7427   26.2948 C    0  0  0  0  0  0  0  0  0  0  0  0
    6.0421   12.8856   26.8600 N    0  0  0  0  0  0  0  0  0  0  0  0
    6.6390   13.5030   28.0506 C    0  0  0  0  0  0  0  0  0  0  0  0
    6.5024   15.0216   27.8350 C    0  0  0  0  0  0  0  0  0  0  0  0
    5.7386   15.2171   26.5086 C    0  0  0  0  0  0  0  0  0  0  0  0
    5.2186   13.8283   26.0869 C    0  0  0  0  0  0  0  0  0  0  0  0
    3.7070   13.5919   26.2888 C    0  0  0  0  0  0  0  0  0  0  0  0
    3.1496   13.1416   27.5105 C    0  0  0  0  0  0  0  0  0  0  0  0
    1.7691   12.9317   27.6340 C    0  0  0  0  0  0  0  0  0  0  0  0
    0.9192   13.1766   26.5469 C    0  0  0  0  0  0  0  0  0  0  0  0
    1.4521   13.6436   25.3381 C    0  0  0  0  0  0  0  0  0  0  0  0
    2.8321   13.8556   25.2131 C    0  0  0  0  0  0  0  0  0  0  0  0
    7.7336   11.7161   25.4638 C    0  0  0  0  0  0  0  0  0  0  0  0
    8.5286   12.9900   25.1139 C    0  0  0  0  0  0  0  0  0  0  0  0
    8.1860   13.6093   23.7522 C    0  0  0  0  0  0  0  0  0  0  0  0
    7.3162   13.1096   23.0552 O    0  0  0  0  0  0  0  0  0  0  0  0
    8.9327   14.6875   23.3209 N    0  0  0  0  0  0  0  0  0  0  0  0
    9.9328   15.4771   24.1279 C    0  0  0  0  0  0  0  0  0  0  0  0
   11.3678   15.4534   23.5330 C    0  0  0  0  0  0  0  0  0  0  0  0
   11.3753   15.8958   22.0441 C    0  0  0  0  0  0  0  0  0  0  0  0
   10.3274   15.0751   21.2372 C    0  0  0  0  0  0  0  0  0  0  0  0
   10.3176   15.5206   19.7809 C    0  0  0  0  0  0  0  0  0  0  0  0
   10.9002   14.6662   18.9148 N    0  0  0  0  0  0  0  0  0  0  0  0
    9.7556   16.5196   19.3735 O    0  0  0  0  0  0  0  0  0  0  0  0
    8.9164   15.1690   21.9025 C    0  0  0  0  0  0  0  0  0  0  0  0
   10.5267    8.3748   22.7498 H    0  0  0  0  0  0  0  0  0  0  0  0
    8.7674    8.1906   22.8922 H    0  0  0  0  0  0  0  0  0  0  0  0
    9.8129    7.9388   24.3152 H    0  0  0  0  0  0  0  0  0  0  0  0
    5.7653    8.5428   26.2653 H    0  0  0  0  0  0  0  0  0  0  0  0
    7.6912   13.2322   28.1822 H    0  0  0  0  0  0  0  0  0  0  0  0
    6.1158   13.1962   28.9605 H    0  0  0  0  0  0  0  0  0  0  0  0
    7.4894   15.4892   27.7758 H    0  0  0  0  0  0  0  0  0  0  0  0
    5.9575   15.4829   28.6636 H    0  0  0  0  0  0  0  0  0  0  0  0
    6.4215   15.6023   25.7454 H    0  0  0  0  0  0  0  0  0  0  0  0
    4.9278   15.9429   26.6197 H    0  0  0  0  0  0  0  0  0  0  0  0
    5.4369   13.7136   25.0201 H    0  0  0  0  0  0  0  0  0  0  0  0
    3.7687   12.9474   28.3815 H    0  0  0  0  0  0  0  0  0  0  0  0
    1.3549   12.5836   28.5768 H    0  0  0  0  0  0  0  0  0  0  0  0
   -0.1508   13.0102   26.6438 H    0  0  0  0  0  0  0  0  0  0  0  0
    0.7984   13.8373   24.4931 H    0  0  0  0  0  0  0  0  0  0  0  0
    3.2178   14.2164   24.2622 H    0  0  0  0  0  0  0  0  0  0  0  0
    9.5976   12.7792   25.1653 H    0  0  0  0  0  0  0  0  0  0  0  0
    8.3837   13.7419   25.8823 H    0  0  0  0  0  0  0  0  0  0  0  0
   10.0162   15.1618   25.1667 H    0  0  0  0  0  0  0  0  0  0  0  0
    9.5871   16.5135   24.1878 H    0  0  0  0  0  0  0  0  0  0  0  0
   11.7890   14.4454   23.6221 H    0  0  0  0  0  0  0  0  0  0  0  0
   12.0157   16.1212   24.1106 H    0  0  0  0  0  0  0  0  0  0  0  0
   12.3738   15.7406   21.6259 H    0  0  0  0  0  0  0  0  0  0  0  0
   11.1532   16.9674   21.9715 H    0  0  0  0  0  0  0  0  0  0  0  0
   10.6323   14.0164   21.2758 H    0  0  0  0  0  0  0  0  0  0  0  0
   11.1888   13.7325   19.2162 H    0  0  0  0  0  0  0  0  0  0  0  0
   10.8660   14.8746   17.9202 H    0  0  0  0  0  0  0  0  0  0  0  0
    8.2101   14.6134   21.2799 H    0  0  0  0  0  0  0  0  0  0  0  0
    8.5611   16.2049   21.8899 H    0  0  0  0  0  0  0  0  0  0  0  0
 19 20  1  0  0  0  0
  7 19  2  0  0  0  0
  6  7  1  0  0  0  0
  5  6  2  0  0  0  0
  4  5  1  0  0  0  0
  3  4  2  0  0  0  0
  2  3  1  0  0  0  0
  1  2  1  0  0  0  0
 32  1  1  0  0  0  0
 33  1  1  0  0  0  0
 34  1  1  0  0  0  0
 35  5  1  0  0  0  0
  8  7  1  0  0  0  0
  9  8  1  0  0  0  0
 10  9  1  0  0  0  0
 36  9  1  0  0  0  0
 37  9  1  0  0  0  0
 11 10  1  0  0  0  0
 38 10  1  0  0  0  0
 39 10  1  0  0  0  0
 12 11  1  0  0  0  0
 40 11  1  0  0  0  0
 41 11  1  0  0  0  0
 13 12  1  0  0  0  0
 42 12  1  0  0  0  0
 14 13  2  0  0  0  0
 15 14  1  0  0  0  0
 43 14  1  0  0  0  0
 16 15  2  0  0  0  0
 44 15  1  0  0  0  0
 17 16  1  0  0  0  0
 45 16  1  0  0  0  0
 18 17  2  0  0  0  0
 46 17  1  0  0  0  0
 47 18  1  0  0  0  0
 21 20  1  0  0  0  0
 48 20  1  0  0  0  0
 49 20  1  0  0  0  0
 22 21  2  0  0  0  0
 23 21  1  0  0  0  0
 24 23  1  0  0  0  0
 25 24  1  0  0  0  0
 50 24  1  0  0  0  0
 51 24  1  0  0  0  0
 26 25  1  0  0  0  0
 52 25  1  0  0  0  0
 53 25  1  0  0  0  0
 27 26  1  0  0  0  0
 54 26  1  0  0  0  0
 55 26  1  0  0  0  0
 28 27  1  0  0  0  0
 31 27  1  0  0  0  0
 56 27  1  0  0  0  0
 29 28  1  0  0  0  0
 30 28  2  0  0  0  0
 57 29  1  0  0  0  0
 58 29  1  0  0  0  0
 59 31  1  0  0  0  0
 60 31  1  0  0  0  0
 12  8  1  0  0  0  0
 18 13  1  0  0  0  0
 19  3  1  0  0  0  0
 31 23  1  0  0  0  0
M  END
>  <FittedScore>
-35.89

$$$$
