A71EV2A-x7570a_best-RMSD
  FITTED

 60 63     0  0  0  0  0  0  0999 V2000
    9.7621    8.6419   23.4417 C    0  0  0  0  0  0  0  0  0  0  0  0
    9.5401   10.4062   23.8554 S    0  0  0  0  0  0  0  0  0  0  0  0
    8.1157   10.5249   24.9333 C    0  0  0  0  0  0  0  0  0  0  0  0
    7.4873    9.3590   25.2506 N    0  0  0  0  0  0  0  0  0  0  0  0
    6.3911    9.4245   26.0435 C    0  0  0  0  0  0  0  0  0  0  0  0
    5.8319   10.5729   26.4921 N    0  0  0  0  0  0  0  0  0  0  0  0
    6.4133   11.7651   26.1640 C    0  0  0  0  0  0  0  0  0  0  0  0
    5.7305   12.9150   26.5709 N    0  0  0  0  0  0  0  0  0  0  0  0
    5.3007   13.9675   25.6302 C    0  0  0  0  0  0  0  0  0  0  0  0
    4.0355   14.5869   26.2278 C    0  0  0  0  0  0  0  0  0  0  0  0
    4.1304   14.2992   27.7324 C    0  0  0  0  0  0  0  0  0  0  0  0
    4.9773   13.0101   27.8413 C    0  0  0  0  0  0  0  0  0  0  0  0
    5.9418   12.8982   29.0301 C    0  0  0  0  0  0  0  0  0  0  0  0
    5.8952   11.7592   29.8593 C    0  0  0  0  0  0  0  0  0  0  0  0
    6.7737   11.6321   30.9441 C    0  0  0  0  0  0  0  0  0  0  0  0
    7.7069   12.6431   31.2141 C    0  0  0  0  0  0  0  0  0  0  0  0
    7.7767   13.7721   30.3836 C    0  0  0  0  0  0  0  0  0  0  0  0
    6.9117   13.8921   29.2854 C    0  0  0  0  0  0  0  0  0  0  0  0
    7.6348   11.7784   25.4184 C    0  0  0  0  0  0  0  0  0  0  0  0
    8.4110   13.0802   25.1193 C    0  0  0  0  0  0  0  0  0  0  0  0
    8.1499   13.6538   23.7118 C    0  0  0  0  0  0  0  0  0  0  0  0
    7.3144   13.1239   22.9950 O    0  0  0  0  0  0  0  0  0  0  0  0
    8.9354   14.6840   23.2424 N    0  0  0  0  0  0  0  0  0  0  0  0
    9.8974   15.5159   24.0446 C    0  0  0  0  0  0  0  0  0  0  0  0
   11.3451   15.5178   23.4778 C    0  0  0  0  0  0  0  0  0  0  0  0
   11.3794   15.9128   21.9764 C    0  0  0  0  0  0  0  0  0  0  0  0
   10.3607   15.0555   21.1671 C    0  0  0  0  0  0  0  0  0  0  0  0
   10.3517   15.4807   19.7083 C    0  0  0  0  0  0  0  0  0  0  0  0
   10.8834   14.6077   18.8342 N    0  0  0  0  0  0  0  0  0  0  0  0
    9.8233   16.5028   19.3198 O    0  0  0  0  0  0  0  0  0  0  0  0
    8.9362   15.1208   21.8076 C    0  0  0  0  0  0  0  0  0  0  0  0
    9.8857    8.0568   24.3548 H    0  0  0  0  0  0  0  0  0  0  0  0
   10.6581    8.5230   22.8266 H    0  0  0  0  0  0  0  0  0  0  0  0
    8.8984    8.2696   22.8836 H    0  0  0  0  0  0  0  0  0  0  0  0
    5.9159    8.4921   26.3326 H    0  0  0  0  0  0  0  0  0  0  0  0
    5.0800   13.5643   24.6366 H    0  0  0  0  0  0  0  0  0  0  0  0
    6.0538   14.7495   25.5152 H    0  0  0  0  0  0  0  0  0  0  0  0
    3.1445   14.1132   25.8016 H    0  0  0  0  0  0  0  0  0  0  0  0
    3.9848   15.6598   26.0259 H    0  0  0  0  0  0  0  0  0  0  0  0
    3.1382   14.1574   28.1700 H    0  0  0  0  0  0  0  0  0  0  0  0
    4.5948   15.1475   28.2409 H    0  0  0  0  0  0  0  0  0  0  0  0
    4.2386   12.2035   27.9062 H    0  0  0  0  0  0  0  0  0  0  0  0
    5.1745   10.9643   29.6760 H    0  0  0  0  0  0  0  0  0  0  0  0
    6.7283   10.7498   31.5772 H    0  0  0  0  0  0  0  0  0  0  0  0
    8.3815   12.5482   32.0612 H    0  0  0  0  0  0  0  0  0  0  0  0
    8.5009   14.5543   30.5957 H    0  0  0  0  0  0  0  0  0  0  0  0
    6.9957   14.7616   28.6367 H    0  0  0  0  0  0  0  0  0  0  0  0
    9.4767   12.8859   25.2483 H    0  0  0  0  0  0  0  0  0  0  0  0
    8.1920   13.8306   25.8835 H    0  0  0  0  0  0  0  0  0  0  0  0
    9.9518   15.2302   25.0936 H    0  0  0  0  0  0  0  0  0  0  0  0
    9.5278   16.5473   24.0586 H    0  0  0  0  0  0  0  0  0  0  0  0
   11.7977   14.5300   23.6078 H    0  0  0  0  0  0  0  0  0  0  0  0
   11.9579   16.2246   24.0440 H    0  0  0  0  0  0  0  0  0  0  0  0
   12.3882   15.7599   21.5798 H    0  0  0  0  0  0  0  0  0  0  0  0
   11.1596   16.9821   21.8678 H    0  0  0  0  0  0  0  0  0  0  0  0
   10.6879   14.0085   21.2365 H    0  0  0  0  0  0  0  0  0  0  0  0
   10.8477   14.8128   17.8434 H    0  0  0  0  0  0  0  0  0  0  0  0
   11.1307   13.6661   19.1402 H    0  0  0  0  0  0  0  0  0  0  0  0
    8.2627   14.5243   21.1864 H    0  0  0  0  0  0  0  0  0  0  0  0
    8.5392   16.1409   21.7642 H    0  0  0  0  0  0  0  0  0  0  0  0
 19 20  1  0  0  0  0
  7 19  2  0  0  0  0
  6  7  1  0  0  0  0
  5  6  2  0  0  0  0
  4  5  1  0  0  0  0
  3  4  2  0  0  0  0
  2  3  1  0  0  0  0
  1  2  1  0  0  0  0
 32  1  1  0  0  0  0
 33  1  1  0  0  0  0
 34  1  1  0  0  0  0
 35  5  1  0  0  0  0
  8  7  1  0  0  0  0
  9  8  1  0  0  0  0
 10  9  1  0  0  0  0
 36  9  1  0  0  0  0
 37  9  1  0  0  0  0
 11 10  1  0  0  0  0
 38 10  1  0  0  0  0
 39 10  1  0  0  0  0
 12 11  1  0  0  0  0
 40 11  1  0  0  0  0
 41 11  1  0  0  0  0
 13 12  1  0  0  0  0
 42 12  1  0  0  0  0
 14 13  2  0  0  0  0
 15 14  1  0  0  0  0
 43 14  1  0  0  0  0
 16 15  2  0  0  0  0
 44 15  1  0  0  0  0
 17 16  1  0  0  0  0
 45 16  1  0  0  0  0
 18 17  2  0  0  0  0
 46 17  1  0  0  0  0
 47 18  1  0  0  0  0
 21 20  1  0  0  0  0
 48 20  1  0  0  0  0
 49 20  1  0  0  0  0
 22 21  2  0  0  0  0
 23 21  1  0  0  0  0
 24 23  1  0  0  0  0
 25 24  1  0  0  0  0
 50 24  1  0  0  0  0
 51 24  1  0  0  0  0
 26 25  1  0  0  0  0
 52 25  1  0  0  0  0
 53 25  1  0  0  0  0
 27 26  1  0  0  0  0
 54 26  1  0  0  0  0
 55 26  1  0  0  0  0
 28 27  1  0  0  0  0
 31 27  1  0  0  0  0
 56 27  1  0  0  0  0
 29 28  1  0  0  0  0
 30 28  2  0  0  0  0
 57 29  1  0  0  0  0
 58 29  1  0  0  0  0
 59 31  1  0  0  0  0
 60 31  1  0  0  0  0
 12  8  1  0  0  0  0
 18 13  1  0  0  0  0
 19  3  1  0  0  0  0
 31 23  1  0  0  0  0
M  END
>  <FittedScore>
-35.96

$$$$
