A71EV2A-x7284a_lowest-energy
  FITTED

 61 64     0  0  0  0  0  0  0999 V2000
    9.6259    8.6150   23.3828 C    0  0  0  0  0  0  0  0  0  0  0  0
    9.5147   10.3791   23.8096 S    0  0  0  0  0  0  0  0  0  0  0  0
    8.1062   10.5527   24.8983 C    0  0  0  0  0  0  0  0  0  0  0  0
    7.4288    9.4190   25.2288 N    0  0  0  0  0  0  0  0  0  0  0  0
    6.3775    9.5213   26.0746 C    0  0  0  0  0  0  0  0  0  0  0  0
    5.9215   10.6897   26.5886 N    0  0  0  0  0  0  0  0  0  0  0  0
    6.5446   11.8502   26.2428 C    0  0  0  0  0  0  0  0  0  0  0  0
    5.9667   13.0212   26.7184 N    0  0  0  0  0  0  0  0  0  0  0  0
    5.7429   13.2644   28.1671 C    0  0  0  0  0  0  0  0  0  0  0  0
    4.2575   12.9906   28.5584 C    0  0  0  0  0  0  0  0  0  0  0  0
    3.1977   13.6215   27.5822 C    0  0  0  0  0  0  0  0  0  0  0  0
    1.7691   13.0569   27.8265 C    0  0  0  0  0  0  0  0  0  0  0  0
    0.8169   14.2579   27.7143 C    0  0  0  0  0  0  0  0  0  0  0  0
    1.7082   15.5119   27.7713 C    0  0  0  0  0  0  0  0  0  0  0  0
    3.0650   15.0335   27.9054 O    0  0  0  0  0  0  0  0  0  0  0  0
    3.6241   13.4894   26.0720 C    0  0  0  0  0  0  0  0  0  0  0  0
    5.1157   13.8378   25.8216 C    0  0  0  0  0  0  0  0  0  0  0  0
    7.6947   11.8231   25.3986 C    0  0  0  0  0  0  0  0  0  0  0  0
    8.4505   13.1110   25.0212 C    0  0  0  0  0  0  0  0  0  0  0  0
    8.1335   13.6539   23.6184 C    0  0  0  0  0  0  0  0  0  0  0  0
    7.3187   13.0822   22.9065 O    0  0  0  0  0  0  0  0  0  0  0  0
    8.8640   14.7279   23.1525 N    0  0  0  0  0  0  0  0  0  0  0  0
    9.7670   15.6180   23.9629 C    0  0  0  0  0  0  0  0  0  0  0  0
   11.2349   15.6128   23.4654 C    0  0  0  0  0  0  0  0  0  0  0  0
   11.3274   15.9903   21.9648 C    0  0  0  0  0  0  0  0  0  0  0  0
   10.3360   15.1341   21.1194 C    0  0  0  0  0  0  0  0  0  0  0  0
   10.3526   15.5828   19.6646 C    0  0  0  0  0  0  0  0  0  0  0  0
   10.8786   14.7081   18.7887 N    0  0  0  0  0  0  0  0  0  0  0  0
    9.8575   16.6251   19.2793 O    0  0  0  0  0  0  0  0  0  0  0  0
    8.8896   15.1458   21.7124 C    0  0  0  0  0  0  0  0  0  0  0  0
    9.7575    8.0170   24.2883 H    0  0  0  0  0  0  0  0  0  0  0  0
   10.4814    8.4494   22.7262 H    0  0  0  0  0  0  0  0  0  0  0  0
    8.7167    8.3062   22.8622 H    0  0  0  0  0  0  0  0  0  0  0  0
    5.8679    8.6011   26.3546 H    0  0  0  0  0  0  0  0  0  0  0  0
    5.9909   14.2983   28.4292 H    0  0  0  0  0  0  0  0  0  0  0  0
    6.3953   12.6397   28.7845 H    0  0  0  0  0  0  0  0  0  0  0  0
    4.0929   13.3599   29.5751 H    0  0  0  0  0  0  0  0  0  0  0  0
    4.1055   11.9086   28.6077 H    0  0  0  0  0  0  0  0  0  0  0  0
    1.6737   12.6175   28.8251 H    0  0  0  0  0  0  0  0  0  0  0  0
    1.4966   12.2751   27.1113 H    0  0  0  0  0  0  0  0  0  0  0  0
    0.0896   14.2597   28.5306 H    0  0  0  0  0  0  0  0  0  0  0  0
    0.2664   14.2220   26.7696 H    0  0  0  0  0  0  0  0  0  0  0  0
    1.4638   16.1516   28.6229 H    0  0  0  0  0  0  0  0  0  0  0  0
    1.6235   16.0983   26.8528 H    0  0  0  0  0  0  0  0  0  0  0  0
    3.0044   14.1316   25.4398 H    0  0  0  0  0  0  0  0  0  0  0  0
    3.4528   12.4662   25.7218 H    0  0  0  0  0  0  0  0  0  0  0  0
    5.2847   14.9069   25.9786 H    0  0  0  0  0  0  0  0  0  0  0  0
    5.3344   13.6542   24.7674 H    0  0  0  0  0  0  0  0  0  0  0  0
    9.5263   12.9318   25.1045 H    0  0  0  0  0  0  0  0  0  0  0  0
    8.2480   13.8856   25.7620 H    0  0  0  0  0  0  0  0  0  0  0  0
    9.7837   15.3857   25.0246 H    0  0  0  0  0  0  0  0  0  0  0  0
    9.3815   16.6410   23.9193 H    0  0  0  0  0  0  0  0  0  0  0  0
   11.6746   14.6239   23.6276 H    0  0  0  0  0  0  0  0  0  0  0  0
   11.8231   16.3213   24.0521 H    0  0  0  0  0  0  0  0  0  0  0  0
   12.3499   15.8247   21.6121 H    0  0  0  0  0  0  0  0  0  0  0  0
   11.1146   17.0586   21.8417 H    0  0  0  0  0  0  0  0  0  0  0  0
   10.6822   14.0947   21.1821 H    0  0  0  0  0  0  0  0  0  0  0  0
   10.8471   14.9111   17.7979 H    0  0  0  0  0  0  0  0  0  0  0  0
   11.1394   13.7727   19.1003 H    0  0  0  0  0  0  0  0  0  0  0  0
    8.2655   14.5086   21.0783 H    0  0  0  0  0  0  0  0  0  0  0  0
    8.4517   16.1477   21.6271 H    0  0  0  0  0  0  0  0  0  0  0  0
 19 20  1  0  0  0  0
 18 19  1  0  0  0  0
  7 18  2  0  0  0  0
  6  7  1  0  0  0  0
  5  6  2  0  0  0  0
  4  5  1  0  0  0  0
  3  4  2  0  0  0  0
  2  3  1  0  0  0  0
  1  2  1  0  0  0  0
 31  1  1  0  0  0  0
 32  1  1  0  0  0  0
 33  1  1  0  0  0  0
 34  5  1  0  0  0  0
  8  7  1  0  0  0  0
  9  8  1  0  0  0  0
 10  9  1  0  0  0  0
 35  9  1  0  0  0  0
 36  9  1  0  0  0  0
 11 10  1  0  0  0  0
 37 10  1  0  0  0  0
 38 10  1  0  0  0  0
 12 11  1  0  0  0  0
 16 11  1  0  0  0  0
 15 11  1  0  0  0  0
 13 12  1  0  0  0  0
 39 12  1  0  0  0  0
 40 12  1  0  0  0  0
 14 13  1  0  0  0  0
 41 13  1  0  0  0  0
 42 13  1  0  0  0  0
 43 14  1  0  0  0  0
 44 14  1  0  0  0  0
 17 16  1  0  0  0  0
 45 16  1  0  0  0  0
 46 16  1  0  0  0  0
 47 17  1  0  0  0  0
 48 17  1  0  0  0  0
 49 19  1  0  0  0  0
 50 19  1  0  0  0  0
 21 20  2  0  0  0  0
 22 20  1  0  0  0  0
 23 22  1  0  0  0  0
 24 23  1  0  0  0  0
 51 23  1  0  0  0  0
 52 23  1  0  0  0  0
 25 24  1  0  0  0  0
 53 24  1  0  0  0  0
 54 24  1  0  0  0  0
 26 25  1  0  0  0  0
 55 25  1  0  0  0  0
 56 25  1  0  0  0  0
 27 26  1  0  0  0  0
 30 26  1  0  0  0  0
 57 26  1  0  0  0  0
 28 27  1  0  0  0  0
 29 27  2  0  0  0  0
 58 28  1  0  0  0  0
 59 28  1  0  0  0  0
 60 30  1  0  0  0  0
 61 30  1  0  0  0  0
 14 15  1  0  0  0  0
 17  8  1  0  0  0  0
 18  3  1  0  0  0  0
 30 22  1  0  0  0  0
M  END
>  <FittedScore>
-34.95

$$$$
