A71EV2A-x5705a_best-RMSD
  FITTED

 41 43     0  0  0  0  0  0  0999 V2000
   10.6946   14.8241   18.7251 N    0  0  0  0  0  0  0  0  0  0  0  0
   10.4900   15.7957   19.6326 C    0  0  0  0  0  0  0  0  0  0  0  0
    9.9825   16.8526   19.3042 O    0  0  0  0  0  0  0  0  0  0  0  0
   10.6125   15.3238   21.0713 C    0  0  0  0  0  0  0  0  0  0  0  0
   11.3698   16.2705   22.0065 C    0  0  0  0  0  0  0  0  0  0  0  0
   10.8172   15.8849   23.3855 C    0  0  0  0  0  0  0  0  0  0  0  0
    9.4234   15.4216   23.1899 N    0  0  0  0  0  0  0  0  0  0  0  0
    8.4570   15.3770   24.1610 C    0  0  0  0  0  0  0  0  0  0  0  0
    8.6956   15.7931   25.2820 O    0  0  0  0  0  0  0  0  0  0  0  0
    7.0170   14.9628   23.7781 C    0  0  0  0  0  0  0  0  0  0  0  0
    6.2010   16.2234   23.3979 C    0  0  0  0  0  0  0  0  0  0  0  0
    5.5041   16.6376   24.6931 C    0  0  0  0  0  0  0  0  0  0  0  0
    5.4197   15.3369   25.5045 C    0  0  0  0  0  0  0  0  0  0  0  0
    6.2920   14.2981   24.8908 N    0  0  0  0  0  0  0  0  0  0  0  0
    6.2550   12.9704   25.2838 C    0  0  0  0  0  0  0  0  0  0  0  0
    5.4146   12.6299   26.1046 O    0  0  0  0  0  0  0  0  0  0  0  0
    7.1804   11.8945   24.7059 C    0  0  0  0  0  0  0  0  0  0  0  0
    6.9853   10.5396   25.0026 C    0  0  0  0  0  0  0  0  0  0  0  0
    7.8720    9.6617   24.3966 C    0  0  0  0  0  0  0  0  0  0  0  0
    8.8317   10.2973   23.6342 C    0  0  0  0  0  0  0  0  0  0  0  0
    8.5993   12.0391   23.6377 S    0  0  0  0  0  0  0  0  0  0  0  0
    9.2502   15.1202   21.7530 C    0  0  0  0  0  0  0  0  0  0  0  0
   10.8398   13.8572   19.0141 H    0  0  0  0  0  0  0  0  0  0  0  0
   10.6300   15.0330   17.7398 H    0  0  0  0  0  0  0  0  0  0  0  0
   11.1488   14.3650   21.1069 H    0  0  0  0  0  0  0  0  0  0  0  0
   11.1230   17.3162   21.7981 H    0  0  0  0  0  0  0  0  0  0  0  0
   12.4536   16.1369   21.9363 H    0  0  0  0  0  0  0  0  0  0  0  0
   10.8679   16.7545   24.0469 H    0  0  0  0  0  0  0  0  0  0  0  0
   11.4088   15.0797   23.8328 H    0  0  0  0  0  0  0  0  0  0  0  0
    6.9784   14.2904   22.9208 H    0  0  0  0  0  0  0  0  0  0  0  0
    5.4588   15.9721   22.6350 H    0  0  0  0  0  0  0  0  0  0  0  0
    6.8219   17.0322   23.0011 H    0  0  0  0  0  0  0  0  0  0  0  0
    4.5122   17.0561   24.5065 H    0  0  0  0  0  0  0  0  0  0  0  0
    6.0997   17.3821   25.2304 H    0  0  0  0  0  0  0  0  0  0  0  0
    4.3810   14.9961   25.5331 H    0  0  0  0  0  0  0  0  0  0  0  0
    5.7435   15.5105   26.5354 H    0  0  0  0  0  0  0  0  0  0  0  0
    6.1818   10.1837   25.6415 H    0  0  0  0  0  0  0  0  0  0  0  0
    7.8213    8.5811   24.5186 H    0  0  0  0  0  0  0  0  0  0  0  0
    9.6262    9.7990   23.0852 H    0  0  0  0  0  0  0  0  0  0  0  0
    8.4847   15.7802   21.3334 H    0  0  0  0  0  0  0  0  0  0  0  0
    8.9266   14.0922   21.5860 H    0  0  0  0  0  0  0  0  0  0  0  0
  7  8  1  0  0  0  0
  6  7  1  0  0  0  0
  5  6  1  0  0  0  0
  4  5  1  0  0  0  0
  2  4  1  0  0  0  0
  1  2  1  0  0  0  0
 23  1  1  0  0  0  0
 24  1  1  0  0  0  0
  3  2  2  0  0  0  0
 25  4  1  0  0  0  0
 26  5  1  0  0  0  0
 27  5  1  0  0  0  0
 28  6  1  0  0  0  0
 29  6  1  0  0  0  0
 22  7  1  0  0  0  0
  9  8  2  0  0  0  0
 10  8  1  0  0  0  0
 11 10  1  0  0  0  0
 30 10  1  0  0  0  0
 12 11  1  0  0  0  0
 31 11  1  0  0  0  0
 32 11  1  0  0  0  0
 13 12  1  0  0  0  0
 33 12  1  0  0  0  0
 34 12  1  0  0  0  0
 14 13  1  0  0  0  0
 35 13  1  0  0  0  0
 36 13  1  0  0  0  0
 15 14  1  0  0  0  0
 16 15  2  0  0  0  0
 17 15  1  0  0  0  0
 18 17  2  0  0  0  0
 19 18  1  0  0  0  0
 37 18  1  0  0  0  0
 20 19  2  0  0  0  0
 38 19  1  0  0  0  0
 21 20  1  0  0  0  0
 39 20  1  0  0  0  0
 40 22  1  0  0  0  0
 41 22  1  0  0  0  0
 14 10  1  0  0  0  0
 21 17  1  0  0  0  0
 22  4  1  0  0  0  0
M  END
>  <FittedScore>
-32.04

$$$$
