A71EV2A-x5699a_best-RMSD
  FITTED

 39 40     0  0  0  0  0  0  0999 V2000
    5.1391   16.2270   24.2195 C    0  0  0  0  0  0  0  0  0  0  0  0
    6.4266   16.0331   23.3832 C    0  0  0  0  0  0  0  0  0  0  0  0
    7.6420   15.3490   24.1188 C    0  0  0  0  0  0  0  0  0  0  0  0
    7.4744   13.8319   24.4493 C    0  0  0  0  0  0  0  0  0  0  0  0
    6.5487   13.4175   25.4379 C    0  0  0  0  0  0  0  0  0  0  0  0
    6.3851   12.0573   25.7502 C    0  0  0  0  0  0  0  0  0  0  0  0
    5.4643   11.6764   26.6568 F    0  0  0  0  0  0  0  0  0  0  0  0
    7.1911   11.0858   25.1411 C    0  0  0  0  0  0  0  0  0  0  0  0
    8.1449   11.4813   24.1958 C    0  0  0  0  0  0  0  0  0  0  0  0
    9.3627   10.2239   23.4612 BR   0  0  0  0  0  0  0  0  0  0  0  0
    8.2653   12.8274   23.8350 C    0  0  0  0  0  0  0  0  0  0  0  0
    8.9990   15.6205   23.4864 N    0  0  0  0  0  0  0  0  0  0  0  0
    9.0140   15.5844   21.9794 C    0  0  0  0  0  0  0  0  0  0  0  0
   10.4007   15.4054   21.2853 C    0  0  0  0  0  0  0  0  0  0  0  0
   10.3519   15.7815   19.7963 C    0  0  0  0  0  0  0  0  0  0  0  0
   10.8399   14.8799   18.9245 N    0  0  0  0  0  0  0  0  0  0  0  0
    9.8639   16.8154   19.3804 O    0  0  0  0  0  0  0  0  0  0  0  0
   11.4730   16.2259   22.0511 C    0  0  0  0  0  0  0  0  0  0  0  0
   11.5157   15.7760   23.5349 C    0  0  0  0  0  0  0  0  0  0  0  0
   10.1519   15.7470   24.2420 C    0  0  0  0  0  0  0  0  0  0  0  0
   10.1428   15.7048   25.4607 O    0  0  0  0  0  0  0  0  0  0  0  0
    5.4031   16.5623   25.2262 H    0  0  0  0  0  0  0  0  0  0  0  0
    4.5484   15.3090   24.2754 H    0  0  0  0  0  0  0  0  0  0  0  0
    4.4870   16.9796   23.7724 H    0  0  0  0  0  0  0  0  0  0  0  0
    6.7301   17.0304   23.0454 H    0  0  0  0  0  0  0  0  0  0  0  0
    6.1576   15.4659   22.4892 H    0  0  0  0  0  0  0  0  0  0  0  0
    7.6524   15.8557   25.0876 H    0  0  0  0  0  0  0  0  0  0  0  0
    5.9432   14.1441   25.9710 H    0  0  0  0  0  0  0  0  0  0  0  0
    7.0867   10.0421   25.4234 H    0  0  0  0  0  0  0  0  0  0  0  0
    9.0119   13.0745   23.0861 H    0  0  0  0  0  0  0  0  0  0  0  0
    8.5896   16.5339   21.6420 H    0  0  0  0  0  0  0  0  0  0  0  0
    8.3618   14.7982   21.5936 H    0  0  0  0  0  0  0  0  0  0  0  0
   10.6723   14.3442   21.3717 H    0  0  0  0  0  0  0  0  0  0  0  0
   10.7745   15.0539   17.9270 H    0  0  0  0  0  0  0  0  0  0  0  0
   11.1264   13.9559   19.2350 H    0  0  0  0  0  0  0  0  0  0  0  0
   11.2332   17.2942   22.0021 H    0  0  0  0  0  0  0  0  0  0  0  0
   12.4564   16.0880   21.5947 H    0  0  0  0  0  0  0  0  0  0  0  0
   12.1828   16.4458   24.0835 H    0  0  0  0  0  0  0  0  0  0  0  0
   11.9580   14.7766   23.6025 H    0  0  0  0  0  0  0  0  0  0  0  0
  3 12  1  0  0  0  0
  2  3  1  0  0  0  0
  1  2  1  0  0  0  0
 22  1  1  0  0  0  0
 23  1  1  0  0  0  0
 24  1  1  0  0  0  0
 25  2  1  0  0  0  0
 26  2  1  0  0  0  0
  4  3  1  0  0  0  0
 27  3  1  0  0  0  0
  5  4  2  0  0  0  0
  6  5  1  0  0  0  0
 28  5  1  0  0  0  0
  7  6  1  0  0  0  0
  8  6  2  0  0  0  0
  9  8  1  0  0  0  0
 29  8  1  0  0  0  0
 10  9  1  0  0  0  0
 11  9  2  0  0  0  0
 30 11  1  0  0  0  0
 13 12  1  0  0  0  0
 14 13  1  0  0  0  0
 31 13  1  0  0  0  0
 32 13  1  0  0  0  0
 15 14  1  0  0  0  0
 18 14  1  0  0  0  0
 33 14  1  0  0  0  0
 16 15  1  0  0  0  0
 17 15  2  0  0  0  0
 34 16  1  0  0  0  0
 35 16  1  0  0  0  0
 19 18  1  0  0  0  0
 36 18  1  0  0  0  0
 37 18  1  0  0  0  0
 20 19  1  0  0  0  0
 38 19  1  0  0  0  0
 39 19  1  0  0  0  0
 21 20  2  0  0  0  0
 11  4  1  0  0  0  0
 20 12  1  0  0  0  0
M  END
>  <FittedScore>
-30.57

$$$$
