A71EV2A-x5699a_lowest-energy
  FITTED

 39 40     0  0  0  0  0  0  0999 V2000
    6.5969   16.8741   23.7983 C    0  0  0  0  0  0  0  0  0  0  0  0
    6.6781   15.3441   23.5566 C    0  0  0  0  0  0  0  0  0  0  0  0
    8.0001   14.6891   24.1052 C    0  0  0  0  0  0  0  0  0  0  0  0
    7.9371   13.1454   24.2818 C    0  0  0  0  0  0  0  0  0  0  0  0
    8.7693   12.2191   23.5961 C    0  0  0  0  0  0  0  0  0  0  0  0
    8.6571   10.8359   23.8349 C    0  0  0  0  0  0  0  0  0  0  0  0
    9.5019    9.9672   23.2287 F    0  0  0  0  0  0  0  0  0  0  0  0
    7.6904   10.3502   24.7265 C    0  0  0  0  0  0  0  0  0  0  0  0
    6.8704   11.2507   25.4253 C    0  0  0  0  0  0  0  0  0  0  0  0
    5.6255   10.6193   26.7274 BR   0  0  0  0  0  0  0  0  0  0  0  0
    7.0086   12.6321   25.2172 C    0  0  0  0  0  0  0  0  0  0  0  0
    9.2952   15.1769   23.4801 N    0  0  0  0  0  0  0  0  0  0  0  0
    9.2591   15.3048   21.9840 C    0  0  0  0  0  0  0  0  0  0  0  0
   10.6420   15.3970   21.2801 C    0  0  0  0  0  0  0  0  0  0  0  0
   10.5090   15.8591   19.8270 C    0  0  0  0  0  0  0  0  0  0  0  0
   10.8419   14.9424   18.8977 N    0  0  0  0  0  0  0  0  0  0  0  0
    9.9976   16.9114   19.4909 O    0  0  0  0  0  0  0  0  0  0  0  0
   11.5924   16.3273   22.0750 C    0  0  0  0  0  0  0  0  0  0  0  0
   11.7409   15.8022   23.5218 C    0  0  0  0  0  0  0  0  0  0  0  0
   10.4191   15.4834   24.2330 C    0  0  0  0  0  0  0  0  0  0  0  0
   10.4340   15.4084   25.4496 O    0  0  0  0  0  0  0  0  0  0  0  0
    7.3346   17.4246   23.2103 H    0  0  0  0  0  0  0  0  0  0  0  0
    6.7626   17.1182   24.8509 H    0  0  0  0  0  0  0  0  0  0  0  0
    5.6129   17.2526   23.5143 H    0  0  0  0  0  0  0  0  0  0  0  0
    6.5268   15.1246   22.4975 H    0  0  0  0  0  0  0  0  0  0  0  0
    5.8159   14.8987   24.0580 H    0  0  0  0  0  0  0  0  0  0  0  0
    8.0017   15.0518   25.1368 H    0  0  0  0  0  0  0  0  0  0  0  0
    9.5136   12.5517   22.8785 H    0  0  0  0  0  0  0  0  0  0  0  0
    7.6051    9.2808   24.8992 H    0  0  0  0  0  0  0  0  0  0  0  0
    6.3872   13.3207   25.7888 H    0  0  0  0  0  0  0  0  0  0  0  0
    8.6984   16.2092   21.7358 H    0  0  0  0  0  0  0  0  0  0  0  0
    8.7132   14.4707   21.5317 H    0  0  0  0  0  0  0  0  0  0  0  0
   11.0727   14.3863   21.3029 H    0  0  0  0  0  0  0  0  0  0  0  0
   11.0665   13.9899   19.1735 H    0  0  0  0  0  0  0  0  0  0  0  0
   10.7089   15.1420   17.9138 H    0  0  0  0  0  0  0  0  0  0  0  0
   11.1964   17.3486   22.0966 H    0  0  0  0  0  0  0  0  0  0  0  0
   12.5727   16.3670   21.5909 H    0  0  0  0  0  0  0  0  0  0  0  0
   12.2957   16.5505   24.0982 H    0  0  0  0  0  0  0  0  0  0  0  0
   12.3527   14.8948   23.5178 H    0  0  0  0  0  0  0  0  0  0  0  0
  3 12  1  0  0  0  0
  2  3  1  0  0  0  0
  1  2  1  0  0  0  0
 22  1  1  0  0  0  0
 23  1  1  0  0  0  0
 24  1  1  0  0  0  0
 25  2  1  0  0  0  0
 26  2  1  0  0  0  0
  4  3  1  0  0  0  0
 27  3  1  0  0  0  0
  5  4  2  0  0  0  0
  6  5  1  0  0  0  0
 28  5  1  0  0  0  0
  7  6  1  0  0  0  0
  8  6  2  0  0  0  0
  9  8  1  0  0  0  0
 29  8  1  0  0  0  0
 10  9  1  0  0  0  0
 11  9  2  0  0  0  0
 30 11  1  0  0  0  0
 13 12  1  0  0  0  0
 14 13  1  0  0  0  0
 31 13  1  0  0  0  0
 32 13  1  0  0  0  0
 15 14  1  0  0  0  0
 18 14  1  0  0  0  0
 33 14  1  0  0  0  0
 16 15  1  0  0  0  0
 17 15  2  0  0  0  0
 34 16  1  0  0  0  0
 35 16  1  0  0  0  0
 19 18  1  0  0  0  0
 36 18  1  0  0  0  0
 37 18  1  0  0  0  0
 20 19  1  0  0  0  0
 38 19  1  0  0  0  0
 39 19  1  0  0  0  0
 21 20  2  0  0  0  0
 11  4  1  0  0  0  0
 20 12  1  0  0  0  0
M  END
>  <FittedScore>
-30.45

$$$$
