A71EV2A-x4031a_lowest-energy
  FITTED

 38 39     0  0  0  0  0  0  0999 V2000
    9.7440   16.7730   19.4243 O    0  0  0  0  0  0  0  0  0  0  0  0
   10.2120   15.7048   19.7613 C    0  0  0  0  0  0  0  0  0  0  0  0
   10.6910   14.8428   18.8438 N    0  0  0  0  0  0  0  0  0  0  0  0
   10.1791   15.1817   21.1990 C    0  0  0  0  0  0  0  0  0  0  0  0
   11.2411   15.8930   22.0922 C    0  0  0  0  0  0  0  0  0  0  0  0
   11.1599   15.3923   23.5617 C    0  0  0  0  0  0  0  0  0  0  0  0
    9.7036   15.3976   24.1082 C    0  0  0  0  0  0  0  0  0  0  0  0
    8.7583   15.2879   21.8354 C    0  0  0  0  0  0  0  0  0  0  0  0
    8.7241   14.6892   23.2087 N    0  0  0  0  0  0  0  0  0  0  0  0
    7.9745   13.5706   23.5100 C    0  0  0  0  0  0  0  0  0  0  0  0
    7.3003   12.9927   22.6813 O    0  0  0  0  0  0  0  0  0  0  0  0
    7.9764   13.1466   24.8033 N    0  0  0  0  0  0  0  0  0  0  0  0
    7.4016   11.9384   25.3177 C    0  0  0  0  0  0  0  0  0  0  0  0
    7.7635   10.6526   24.8431 C    0  0  0  0  0  0  0  0  0  0  0  0
    8.8047   10.5510   23.9289 O    0  0  0  0  0  0  0  0  0  0  0  0
    9.3754    9.3052   23.4691 C    0  0  0  0  0  0  0  0  0  0  0  0
    6.4258   12.0487   26.3223 C    0  0  0  0  0  0  0  0  0  0  0  0
    5.7863   10.8908   26.7850 C    0  0  0  0  0  0  0  0  0  0  0  0
    6.1400    9.6553   26.2310 C    0  0  0  0  0  0  0  0  0  0  0  0
    7.1088    9.5349   25.2814 N    0  0  0  0  0  0  0  0  0  0  0  0
   10.8967   13.8803   19.1191 H    0  0  0  0  0  0  0  0  0  0  0  0
   10.6661   15.0855   17.8617 H    0  0  0  0  0  0  0  0  0  0  0  0
   10.4309   14.1132   21.1955 H    0  0  0  0  0  0  0  0  0  0  0  0
   12.2404   15.6865   21.7014 H    0  0  0  0  0  0  0  0  0  0  0  0
   11.1051   16.9800   22.0637 H    0  0  0  0  0  0  0  0  0  0  0  0
   11.5679   14.3792   23.6242 H    0  0  0  0  0  0  0  0  0  0  0  0
   11.7872   16.0251   24.1947 H    0  0  0  0  0  0  0  0  0  0  0  0
    9.7368   14.9816   25.1167 H    0  0  0  0  0  0  0  0  0  0  0  0
    9.3722   16.4316   24.2409 H    0  0  0  0  0  0  0  0  0  0  0  0
    8.0383   14.8258   21.1553 H    0  0  0  0  0  0  0  0  0  0  0  0
    8.4481   16.3345   21.8980 H    0  0  0  0  0  0  0  0  0  0  0  0
    8.3169   13.7760   25.5238 H    0  0  0  0  0  0  0  0  0  0  0  0
    9.8591    8.7869   24.3022 H    0  0  0  0  0  0  0  0  0  0  0  0
   10.1421    9.5218   22.7200 H    0  0  0  0  0  0  0  0  0  0  0  0
    8.6043    8.6699   23.0325 H    0  0  0  0  0  0  0  0  0  0  0  0
    6.1490   13.0194   26.7275 H    0  0  0  0  0  0  0  0  0  0  0  0
    5.0188   10.9562   27.5528 H    0  0  0  0  0  0  0  0  0  0  0  0
    5.6284    8.7586   26.5771 H    0  0  0  0  0  0  0  0  0  0  0  0
  9 10  1  0  0  0  0
  7  9  1  0  0  0  0
  6  7  1  0  0  0  0
  5  6  1  0  0  0  0
  4  5  1  0  0  0  0
  2  4  1  0  0  0  0
  1  2  2  0  0  0  0
  3  2  1  0  0  0  0
 21  3  1  0  0  0  0
 22  3  1  0  0  0  0
 23  4  1  0  0  0  0
 24  5  1  0  0  0  0
 25  5  1  0  0  0  0
 26  6  1  0  0  0  0
 27  6  1  0  0  0  0
 28  7  1  0  0  0  0
 29  7  1  0  0  0  0
  8  4  1  0  0  0  0
 30  8  1  0  0  0  0
 31  8  1  0  0  0  0
 11 10  2  0  0  0  0
 12 10  1  0  0  0  0
 32 12  1  0  0  0  0
 13 12  1  0  0  0  0
 14 13  1  0  0  0  0
 20 14  2  0  0  0  0
 15 14  1  0  0  0  0
 16 15  1  0  0  0  0
 33 16  1  0  0  0  0
 34 16  1  0  0  0  0
 35 16  1  0  0  0  0
 17 13  2  0  0  0  0
 36 17  1  0  0  0  0
 18 17  1  0  0  0  0
 37 18  1  0  0  0  0
 19 18  2  0  0  0  0
 38 19  1  0  0  0  0
  9  8  1  0  0  0  0
 20 19  1  0  0  0  0
M  END
>  <FittedScore>
-36.46

$$$$
