A71EV2A-x6925a_lowest-energy
  FITTED

 49 51     0  0  0  0  0  0  0999 V2000
    9.8276    8.6788   23.6980 C    0  0  0  0  0  0  0  0  0  0  0  0
    9.4888   10.4213   24.0839 S    0  0  0  0  0  0  0  0  0  0  0  0
    7.8554   10.5571   24.8158 C    0  0  0  0  0  0  0  0  0  0  0  0
    7.0909    9.4155   25.1060 C    0  0  0  0  0  0  0  0  0  0  0  0
    5.8281    9.5219   25.6940 C    0  0  0  0  0  0  0  0  0  0  0  0
    5.2694   10.7773   25.9913 C    0  0  0  0  0  0  0  0  0  0  0  0
    3.9967   10.8976   26.5809 C    0  0  0  0  0  0  0  0  0  0  0  0
    3.1554   11.9823   26.4789 C    0  0  0  0  0  0  0  0  0  0  0  0
    1.9096   11.6564   27.1738 N    0  0  0  0  0  0  0  0  0  0  0  0
    2.0598   10.4973   27.6986 N    0  0  0  0  0  0  0  0  0  0  0  0
    3.2879   10.0028   27.3473 N    0  0  0  0  0  0  0  0  0  0  0  0
    3.8841    9.0282   28.2915 C    0  0  0  0  0  0  0  0  0  0  0  0
    6.0191   11.9242   25.6620 C    0  0  0  0  0  0  0  0  0  0  0  0
    7.3071   11.8317   25.1059 C    0  0  0  0  0  0  0  0  0  0  0  0
    8.0647   13.1426   24.8516 C    0  0  0  0  0  0  0  0  0  0  0  0
    8.0501   13.6081   23.3852 C    0  0  0  0  0  0  0  0  0  0  0  0
    7.1918   13.1757   22.6288 O    0  0  0  0  0  0  0  0  0  0  0  0
    8.9330   14.5878   22.9793 N    0  0  0  0  0  0  0  0  0  0  0  0
    9.7189   15.4954   23.8890 C    0  0  0  0  0  0  0  0  0  0  0  0
   11.1978   15.7010   23.4712 C    0  0  0  0  0  0  0  0  0  0  0  0
   11.3365   16.1366   21.9911 C    0  0  0  0  0  0  0  0  0  0  0  0
   10.4947   15.2281   21.0478 C    0  0  0  0  0  0  0  0  0  0  0  0
   10.5338   15.7197   19.5961 C    0  0  0  0  0  0  0  0  0  0  0  0
   10.9040   14.8104   18.6786 N    0  0  0  0  0  0  0  0  0  0  0  0
   10.1235   16.8048   19.2303 O    0  0  0  0  0  0  0  0  0  0  0  0
    9.0284   15.0571   21.5576 C    0  0  0  0  0  0  0  0  0  0  0  0
    9.8431    8.0923   24.6171 H    0  0  0  0  0  0  0  0  0  0  0  0
   10.8086    8.6028   23.2255 H    0  0  0  0  0  0  0  0  0  0  0  0
    9.0738    8.2908   23.0079 H    0  0  0  0  0  0  0  0  0  0  0  0
    7.4489    8.4170   24.8853 H    0  0  0  0  0  0  0  0  0  0  0  0
    5.2769    8.6027   25.8825 H    0  0  0  0  0  0  0  0  0  0  0  0
    3.3136   12.9215   25.9468 H    0  0  0  0  0  0  0  0  0  0  0  0
    4.9052    9.3027   28.5746 H    0  0  0  0  0  0  0  0  0  0  0  0
    3.9226    8.0256   27.8615 H    0  0  0  0  0  0  0  0  0  0  0  0
    3.3279    8.9433   29.2304 H    0  0  0  0  0  0  0  0  0  0  0  0
    5.6225   12.9160   25.8679 H    0  0  0  0  0  0  0  0  0  0  0  0
    9.0846   13.0077   25.2202 H    0  0  0  0  0  0  0  0  0  0  0  0
    7.6479   13.9402   25.4726 H    0  0  0  0  0  0  0  0  0  0  0  0
    9.7393   15.1650   24.9260 H    0  0  0  0  0  0  0  0  0  0  0  0
    9.2170   16.4667   23.9247 H    0  0  0  0  0  0  0  0  0  0  0  0
   11.7569   14.7763   23.6435 H    0  0  0  0  0  0  0  0  0  0  0  0
   11.6474   16.4617   24.1127 H    0  0  0  0  0  0  0  0  0  0  0  0
   12.3873   16.0847   21.6973 H    0  0  0  0  0  0  0  0  0  0  0  0
   11.0327   17.1833   21.8889 H    0  0  0  0  0  0  0  0  0  0  0  0
   10.9475   14.2297   21.0979 H    0  0  0  0  0  0  0  0  0  0  0  0
   10.7864   15.0265   17.6958 H    0  0  0  0  0  0  0  0  0  0  0  0
   11.1064   13.8461   18.9428 H    0  0  0  0  0  0  0  0  0  0  0  0
    8.5314   14.3631   20.8761 H    0  0  0  0  0  0  0  0  0  0  0  0
    8.4773   15.9995   21.4664 H    0  0  0  0  0  0  0  0  0  0  0  0
 14 15  1  0  0  0  0
 13 14  2  0  0  0  0
  6 13  1  0  0  0  0
  5  6  2  0  0  0  0
  4  5  1  0  0  0  0
  3  4  2  0  0  0  0
  2  3  1  0  0  0  0
  1  2  1  0  0  0  0
 27  1  1  0  0  0  0
 28  1  1  0  0  0  0
 29  1  1  0  0  0  0
 30  4  1  0  0  0  0
 31  5  1  0  0  0  0
  7  6  1  0  0  0  0
  8  7  2  0  0  0  0
  9  8  1  0  0  0  0
 32  8  1  0  0  0  0
 10  9  2  0  0  0  0
 11 10  1  0  0  0  0
 12 11  1  0  0  0  0
 33 12  1  0  0  0  0
 34 12  1  0  0  0  0
 35 12  1  0  0  0  0
 36 13  1  0  0  0  0
 16 15  1  0  0  0  0
 37 15  1  0  0  0  0
 38 15  1  0  0  0  0
 17 16  2  0  0  0  0
 18 16  1  0  0  0  0
 19 18  1  0  0  0  0
 20 19  1  0  0  0  0
 39 19  1  0  0  0  0
 40 19  1  0  0  0  0
 21 20  1  0  0  0  0
 41 20  1  0  0  0  0
 42 20  1  0  0  0  0
 22 21  1  0  0  0  0
 43 21  1  0  0  0  0
 44 21  1  0  0  0  0
 23 22  1  0  0  0  0
 26 22  1  0  0  0  0
 45 22  1  0  0  0  0
 24 23  1  0  0  0  0
 25 23  2  0  0  0  0
 46 24  1  0  0  0  0
 47 24  1  0  0  0  0
 48 26  1  0  0  0  0
 49 26  1  0  0  0  0
 11  7  1  0  0  0  0
 14  3  1  0  0  0  0
 26 18  1  0  0  0  0
M  END
>  <FittedScore>
-32.17

$$$$
