A71EV2A-x6925a_best-RMSD
  FITTED

 49 51     0  0  0  0  0  0  0999 V2000
    9.4559    8.6348   23.5147 C    0  0  0  0  0  0  0  0  0  0  0  0
    9.4752   10.2258   24.3948 S    0  0  0  0  0  0  0  0  0  0  0  0
    7.8129   10.5251   24.9961 C    0  0  0  0  0  0  0  0  0  0  0  0
    6.9771    9.4451   25.3177 C    0  0  0  0  0  0  0  0  0  0  0  0
    5.6842    9.6432   25.8053 C    0  0  0  0  0  0  0  0  0  0  0  0
    5.1629   10.9363   25.9861 C    0  0  0  0  0  0  0  0  0  0  0  0
    3.8471   11.1630   26.4635 C    0  0  0  0  0  0  0  0  0  0  0  0
    3.1036   12.3069   26.2630 C    0  0  0  0  0  0  0  0  0  0  0  0
    1.7766   12.1137   26.8548 N    0  0  0  0  0  0  0  0  0  0  0  0
    1.7777   10.9600   27.4093 N    0  0  0  0  0  0  0  0  0  0  0  0
    2.9817   10.3555   27.1639 N    0  0  0  0  0  0  0  0  0  0  0  0
    3.2846    9.1575   27.9704 C    0  0  0  0  0  0  0  0  0  0  0  0
    6.0027   12.0233   25.6510 C    0  0  0  0  0  0  0  0  0  0  0  0
    7.3209   11.8398   25.1834 C    0  0  0  0  0  0  0  0  0  0  0  0
    8.1529   13.1008   24.8846 C    0  0  0  0  0  0  0  0  0  0  0  0
    8.0535   13.6021   23.4308 C    0  0  0  0  0  0  0  0  0  0  0  0
    7.1839   13.1550   22.6959 O    0  0  0  0  0  0  0  0  0  0  0  0
    8.8903   14.6159   23.0060 N    0  0  0  0  0  0  0  0  0  0  0  0
    9.7130   15.5208   23.8913 C    0  0  0  0  0  0  0  0  0  0  0  0
   11.1565   15.7947   23.3840 C    0  0  0  0  0  0  0  0  0  0  0  0
   11.1815   16.2615   21.9059 C    0  0  0  0  0  0  0  0  0  0  0  0
   10.3593   15.2806   21.0190 C    0  0  0  0  0  0  0  0  0  0  0  0
   10.3476   15.7231   19.5577 C    0  0  0  0  0  0  0  0  0  0  0  0
   10.7890   14.8178   18.6682 N    0  0  0  0  0  0  0  0  0  0  0  0
    9.8282   16.7482   19.1678 O    0  0  0  0  0  0  0  0  0  0  0  0
    8.9138   15.0981   21.5845 C    0  0  0  0  0  0  0  0  0  0  0  0
   10.4002    8.5079   22.9831 H    0  0  0  0  0  0  0  0  0  0  0  0
    8.6375    8.6207   22.7934 H    0  0  0  0  0  0  0  0  0  0  0  0
    9.3496    7.8082   24.2160 H    0  0  0  0  0  0  0  0  0  0  0  0
    7.3183    8.4196   25.2153 H    0  0  0  0  0  0  0  0  0  0  0  0
    5.0914    8.7556   25.9973 H    0  0  0  0  0  0  0  0  0  0  0  0
    3.3779   13.2093   25.7234 H    0  0  0  0  0  0  0  0  0  0  0  0
    2.6259    9.0415   28.8348 H    0  0  0  0  0  0  0  0  0  0  0  0
    4.3013    9.1871   28.3686 H    0  0  0  0  0  0  0  0  0  0  0  0
    3.1835    8.2489   27.3748 H    0  0  0  0  0  0  0  0  0  0  0  0
    5.6554   13.0460   25.7750 H    0  0  0  0  0  0  0  0  0  0  0  0
    9.2006   12.9236   25.1534 H    0  0  0  0  0  0  0  0  0  0  0  0
    7.8322   13.9038   25.5589 H    0  0  0  0  0  0  0  0  0  0  0  0
    9.8193   15.1414   24.9056 H    0  0  0  0  0  0  0  0  0  0  0  0
    9.1807   16.4728   24.0013 H    0  0  0  0  0  0  0  0  0  0  0  0
   11.7549   14.8864   23.4919 H    0  0  0  0  0  0  0  0  0  0  0  0
   11.6121   16.5627   24.0128 H    0  0  0  0  0  0  0  0  0  0  0  0
   12.2149   16.3228   21.5486 H    0  0  0  0  0  0  0  0  0  0  0  0
   10.7707   17.2779   21.8391 H    0  0  0  0  0  0  0  0  0  0  0  0
   10.8477   14.2978   21.0927 H    0  0  0  0  0  0  0  0  0  0  0  0
   11.0402   13.8687   18.9433 H    0  0  0  0  0  0  0  0  0  0  0  0
   10.7090   15.0337   17.6868 H    0  0  0  0  0  0  0  0  0  0  0  0
    8.3887   14.4133   20.9118 H    0  0  0  0  0  0  0  0  0  0  0  0
    8.3531   16.0390   21.5238 H    0  0  0  0  0  0  0  0  0  0  0  0
 14 15  1  0  0  0  0
 13 14  2  0  0  0  0
  6 13  1  0  0  0  0
  5  6  2  0  0  0  0
  4  5  1  0  0  0  0
  3  4  2  0  0  0  0
  2  3  1  0  0  0  0
  1  2  1  0  0  0  0
 27  1  1  0  0  0  0
 28  1  1  0  0  0  0
 29  1  1  0  0  0  0
 30  4  1  0  0  0  0
 31  5  1  0  0  0  0
  7  6  1  0  0  0  0
  8  7  2  0  0  0  0
  9  8  1  0  0  0  0
 32  8  1  0  0  0  0
 10  9  2  0  0  0  0
 11 10  1  0  0  0  0
 12 11  1  0  0  0  0
 33 12  1  0  0  0  0
 34 12  1  0  0  0  0
 35 12  1  0  0  0  0
 36 13  1  0  0  0  0
 16 15  1  0  0  0  0
 37 15  1  0  0  0  0
 38 15  1  0  0  0  0
 17 16  2  0  0  0  0
 18 16  1  0  0  0  0
 19 18  1  0  0  0  0
 20 19  1  0  0  0  0
 39 19  1  0  0  0  0
 40 19  1  0  0  0  0
 21 20  1  0  0  0  0
 41 20  1  0  0  0  0
 42 20  1  0  0  0  0
 22 21  1  0  0  0  0
 43 21  1  0  0  0  0
 44 21  1  0  0  0  0
 23 22  1  0  0  0  0
 26 22  1  0  0  0  0
 45 22  1  0  0  0  0
 24 23  1  0  0  0  0
 25 23  2  0  0  0  0
 46 24  1  0  0  0  0
 47 24  1  0  0  0  0
 48 26  1  0  0  0  0
 49 26  1  0  0  0  0
 11  7  1  0  0  0  0
 14  3  1  0  0  0  0
 26 18  1  0  0  0  0
M  END
>  <FittedScore>
-32.15

$$$$
