A71EV2A-x6955b_best-RMSD
  FITTED

 53 55     0  0  0  0  0  0  0999 V2000
    9.6119    8.6130   23.3639 C    0  0  0  0  0  0  0  0  0  0  0  0
    9.4912   10.3071   23.9971 S    0  0  0  0  0  0  0  0  0  0  0  0
    8.0086   10.4965   25.0100 C    0  0  0  0  0  0  0  0  0  0  0  0
    7.3028    9.3571   25.4214 C    0  0  0  0  0  0  0  0  0  0  0  0
    6.1726    9.4621   26.2248 C    0  0  0  0  0  0  0  0  0  0  0  0
    5.6978   10.7139   26.5996 C    0  0  0  0  0  0  0  0  0  0  0  0
    6.3381   11.9044   26.1847 C    0  0  0  0  0  0  0  0  0  0  0  0
    5.7194   13.1344   26.5508 C    0  0  0  0  0  0  0  0  0  0  0  0
    5.7024   14.2955   25.8001 C    0  0  0  0  0  0  0  0  0  0  0  0
    4.9936   15.2558   26.4850 C    0  0  0  0  0  0  0  0  0  0  0  0
    4.8887   16.7249   26.0660 C    0  0  0  0  0  0  0  0  0  0  0  0
    5.9059   17.4402   26.5806 F    0  0  0  0  0  0  0  0  0  0  0  0
    4.9248   16.8699   24.7241 F    0  0  0  0  0  0  0  0  0  0  0  0
    3.7418   17.2738   26.5180 F    0  0  0  0  0  0  0  0  0  0  0  0
    4.4693   14.6894   27.7467 N    0  0  0  0  0  0  0  0  0  0  0  0
    4.9717   13.4168   27.6822 N    0  0  0  0  0  0  0  0  0  0  0  0
    5.0679   12.7239   28.9854 C    0  0  0  0  0  0  0  0  0  0  0  0
    7.5406   11.7874   25.4046 C    0  0  0  0  0  0  0  0  0  0  0  0
    8.4179   13.0145   25.0581 C    0  0  0  0  0  0  0  0  0  0  0  0
    8.2513   13.5337   23.6142 C    0  0  0  0  0  0  0  0  0  0  0  0
    7.4598   12.9863   22.8631 O    0  0  0  0  0  0  0  0  0  0  0  0
    8.9831   14.6246   23.1905 N    0  0  0  0  0  0  0  0  0  0  0  0
    9.7450   15.5745   24.0745 C    0  0  0  0  0  0  0  0  0  0  0  0
   11.1948   15.8641   23.5978 C    0  0  0  0  0  0  0  0  0  0  0  0
   11.2298   16.3326   22.1187 C    0  0  0  0  0  0  0  0  0  0  0  0
   10.4499   15.3354   21.2131 C    0  0  0  0  0  0  0  0  0  0  0  0
   10.4212   15.7927   19.7515 C    0  0  0  0  0  0  0  0  0  0  0  0
   10.8171   14.8619   18.8584 N    0  0  0  0  0  0  0  0  0  0  0  0
    9.8640   16.8115   19.3821 O    0  0  0  0  0  0  0  0  0  0  0  0
    9.0082   15.0928   21.7630 C    0  0  0  0  0  0  0  0  0  0  0  0
    9.7913    7.9241   24.1891 H    0  0  0  0  0  0  0  0  0  0  0  0
   10.4606    8.5675   22.6805 H    0  0  0  0  0  0  0  0  0  0  0  0
    8.7039    8.3231   22.8310 H    0  0  0  0  0  0  0  0  0  0  0  0
    7.6191    8.3624   25.1358 H    0  0  0  0  0  0  0  0  0  0  0  0
    5.6512    8.5645   26.5499 H    0  0  0  0  0  0  0  0  0  0  0  0
    4.7862   10.7410   27.1897 H    0  0  0  0  0  0  0  0  0  0  0  0
    6.1453   14.4527   24.8290 H    0  0  0  0  0  0  0  0  0  0  0  0
    4.1805   12.1137   29.1691 H    0  0  0  0  0  0  0  0  0  0  0  0
    5.1543   13.4150   29.8318 H    0  0  0  0  0  0  0  0  0  0  0  0
    5.9399   12.0685   29.0526 H    0  0  0  0  0  0  0  0  0  0  0  0
    9.4701   12.7812   25.2367 H    0  0  0  0  0  0  0  0  0  0  0  0
    8.2349   13.8071   25.7827 H    0  0  0  0  0  0  0  0  0  0  0  0
    9.8297   15.2360   25.1044 H    0  0  0  0  0  0  0  0  0  0  0  0
    9.1847   16.5141   24.1340 H    0  0  0  0  0  0  0  0  0  0  0  0
   11.8127   14.9653   23.7150 H    0  0  0  0  0  0  0  0  0  0  0  0
   11.6222   16.6391   24.2382 H    0  0  0  0  0  0  0  0  0  0  0  0
   12.2683   16.4130   21.7782 H    0  0  0  0  0  0  0  0  0  0  0  0
   10.7816   17.3306   22.0490 H    0  0  0  0  0  0  0  0  0  0  0  0
   10.9770   14.3742   21.2875 H    0  0  0  0  0  0  0  0  0  0  0  0
   11.0189   13.9148   19.1710 H    0  0  0  0  0  0  0  0  0  0  0  0
   10.8007   15.0707   17.8604 H    0  0  0  0  0  0  0  0  0  0  0  0
    8.5358   14.3722   21.0879 H    0  0  0  0  0  0  0  0  0  0  0  0
    8.4149   16.0091   21.6796 H    0  0  0  0  0  0  0  0  0  0  0  0
 18 19  1  0  0  0  0
  7 18  2  0  0  0  0
  6  7  1  0  0  0  0
  5  6  2  0  0  0  0
  4  5  1  0  0  0  0
  3  4  2  0  0  0  0
  2  3  1  0  0  0  0
  1  2  1  0  0  0  0
 31  1  1  0  0  0  0
 32  1  1  0  0  0  0
 33  1  1  0  0  0  0
 34  4  1  0  0  0  0
 35  5  1  0  0  0  0
 36  6  1  0  0  0  0
  8  7  1  0  0  0  0
  9  8  2  0  0  0  0
 10  9  1  0  0  0  0
 37  9  1  0  0  0  0
 11 10  1  0  0  0  0
 15 10  2  0  0  0  0
 12 11  1  0  0  0  0
 13 11  1  0  0  0  0
 14 11  1  0  0  0  0
 16 15  1  0  0  0  0
 17 16  1  0  0  0  0
 38 17  1  0  0  0  0
 39 17  1  0  0  0  0
 40 17  1  0  0  0  0
 20 19  1  0  0  0  0
 41 19  1  0  0  0  0
 42 19  1  0  0  0  0
 21 20  2  0  0  0  0
 22 20  1  0  0  0  0
 23 22  1  0  0  0  0
 24 23  1  0  0  0  0
 43 23  1  0  0  0  0
 44 23  1  0  0  0  0
 25 24  1  0  0  0  0
 45 24  1  0  0  0  0
 46 24  1  0  0  0  0
 26 25  1  0  0  0  0
 47 25  1  0  0  0  0
 48 25  1  0  0  0  0
 27 26  1  0  0  0  0
 30 26  1  0  0  0  0
 49 26  1  0  0  0  0
 28 27  1  0  0  0  0
 29 27  2  0  0  0  0
 50 28  1  0  0  0  0
 51 28  1  0  0  0  0
 52 30  1  0  0  0  0
 53 30  1  0  0  0  0
 16  8  1  0  0  0  0
 18  3  1  0  0  0  0
 30 22  1  0  0  0  0
M  END
>  <FittedScore>
-33.81

$$$$
