A71EV2A-x4575a_lowest-energy
  FITTED

 40 42     0  0  0  0  0  0  0999 V2000
    6.8942   13.0492   22.6059 O    0  0  0  0  0  0  0  0  0  0  0  0
    7.6258   13.4380   23.5108 C    0  0  0  0  0  0  0  0  0  0  0  0
    8.5528   14.4290   23.1727 N    0  0  0  0  0  0  0  0  0  0  0  0
    9.6467   15.0238   24.0412 C    0  0  0  0  0  0  0  0  0  0  0  0
   11.0648   15.1646   23.4124 C    0  0  0  0  0  0  0  0  0  0  0  0
   11.0323   15.7703   21.9948 C    0  0  0  0  0  0  0  0  0  0  0  0
    8.5681   15.1214   21.8371 C    0  0  0  0  0  0  0  0  0  0  0  0
    9.9596   15.0242   21.1657 C    0  0  0  0  0  0  0  0  0  0  0  0
    9.9644   15.5213   19.7345 C    0  0  0  0  0  0  0  0  0  0  0  0
    9.5164   16.5919   19.3756 O    0  0  0  0  0  0  0  0  0  0  0  0
   10.5590   14.6699   18.8855 N    0  0  0  0  0  0  0  0  0  0  0  0
    7.7471   12.7206   24.9243 C    0  0  0  0  0  0  0  0  0  0  0  0
    7.4832   13.8711   25.9817 C    0  0  0  0  0  0  0  0  0  0  0  0
    6.4756   12.8702   26.6308 C    0  0  0  0  0  0  0  0  0  0  0  0
    6.2272   12.3387   25.1844 C    0  0  0  0  0  0  0  0  0  0  0  0
    8.8218   11.6243   24.9682 C    0  0  0  0  0  0  0  0  0  0  0  0
   10.0831   11.6900   25.5373 C    0  0  0  0  0  0  0  0  0  0  0  0
   10.7482   10.5002   25.3313 O    0  0  0  0  0  0  0  0  0  0  0  0
    9.8952    9.7015   24.6075 C    0  0  0  0  0  0  0  0  0  0  0  0
    8.7099   10.3744   24.3913 C    0  0  0  0  0  0  0  0  0  0  0  0
    9.3083   16.0042   24.3877 H    0  0  0  0  0  0  0  0  0  0  0  0
    9.8340   14.4449   24.9327 H    0  0  0  0  0  0  0  0  0  0  0  0
   11.6906   15.7884   24.0560 H    0  0  0  0  0  0  0  0  0  0  0  0
   11.5427   14.1798   23.3682 H    0  0  0  0  0  0  0  0  0  0  0  0
   10.8261   16.8465   22.0354 H    0  0  0  0  0  0  0  0  0  0  0  0
   12.0144   15.6512   21.5285 H    0  0  0  0  0  0  0  0  0  0  0  0
    8.2646   16.1679   21.9652 H    0  0  0  0  0  0  0  0  0  0  0  0
    7.8450   14.7145   21.1276 H    0  0  0  0  0  0  0  0  0  0  0  0
   10.2171   13.9542   21.1828 H    0  0  0  0  0  0  0  0  0  0  0  0
   10.7539   14.9480   17.9340 H    0  0  0  0  0  0  0  0  0  0  0  0
   10.8206   13.7397   19.2053 H    0  0  0  0  0  0  0  0  0  0  0  0
    8.3191   14.1425   26.6333 H    0  0  0  0  0  0  0  0  0  0  0  0
    7.0223   14.8039   25.6242 H    0  0  0  0  0  0  0  0  0  0  0  0
    6.9171   12.1464   27.3272 H    0  0  0  0  0  0  0  0  0  0  0  0
    5.6129   13.3288   27.1210 H    0  0  0  0  0  0  0  0  0  0  0  0
    5.9733   11.2776   25.1099 H    0  0  0  0  0  0  0  0  0  0  0  0
    5.4254   12.8974   24.6787 H    0  0  0  0  0  0  0  0  0  0  0  0
   10.5082   12.5394   26.0633 H    0  0  0  0  0  0  0  0  0  0  0  0
   10.1379    8.7122   24.2325 H    0  0  0  0  0  0  0  0  0  0  0  0
    7.8522    9.9959   23.8398 H    0  0  0  0  0  0  0  0  0  0  0  0
  3  2  1  0  0  0  0
  4  3  1  0  0  0  0
 21  4  1  0  0  0  0
  1  2  2  0  0  0  0
 22  4  1  0  0  0  0
  5  4  1  0  0  0  0
 23  5  1  0  0  0  0
 24  5  1  0  0  0  0
  6  5  1  0  0  0  0
 25  6  1  0  0  0  0
 26  6  1  0  0  0  0
  7  3  1  0  0  0  0
 27  7  1  0  0  0  0
 28  7  1  0  0  0  0
  8  6  1  0  0  0  0
  9  8  1  0  0  0  0
 29  8  1  0  0  0  0
 10  9  2  0  0  0  0
 11  9  1  0  0  0  0
 30 11  1  0  0  0  0
 31 11  1  0  0  0  0
 12  2  1  0  0  0  0
 15 12  1  0  0  0  0
 13 12  1  0  0  0  0
 32 13  1  0  0  0  0
 33 13  1  0  0  0  0
 14 13  1  0  0  0  0
 34 14  1  0  0  0  0
 35 14  1  0  0  0  0
 36 15  1  0  0  0  0
 37 15  1  0  0  0  0
 16 12  1  0  0  0  0
 20 16  1  0  0  0  0
 17 16  2  0  0  0  0
 38 17  1  0  0  0  0
 18 17  1  0  0  0  0
 19 18  1  0  0  0  0
 39 19  1  0  0  0  0
 40 20  1  0  0  0  0
  8  7  1  0  0  0  0
 15 14  1  0  0  0  0
 20 19  2  0  0  0  0
M  END
>  <FittedScore>
-31.81

$$$$
