A71EV2A-x4472a_lowest-energy
  FITTED

 35 37     0  0  0  0  0  0  0999 V2000
    7.3856   12.9037   23.0050 O    0  0  0  0  0  0  0  0  0  0  0  0
    8.1513   13.4914   23.7397 C    0  0  0  0  0  0  0  0  0  0  0  0
    8.0332   13.3000   25.2645 C    0  0  0  0  0  0  0  0  0  0  0  0
    7.0673   12.2062   25.6665 C    0  0  0  0  0  0  0  0  0  0  0  0
    7.2508   10.7671   25.8242 N    0  0  0  0  0  0  0  0  0  0  0  0
    6.3575   10.2710   26.6060 N    0  0  0  0  0  0  0  0  0  0  0  0
    5.2961   11.3690   27.3033 S    0  0  0  0  0  0  0  0  0  0  0  0
    6.0917   12.6727   26.4688 C    0  0  0  0  0  0  0  0  0  0  0  0
    6.1221   14.1603   26.6571 C    0  0  0  0  0  0  0  0  0  0  0  0
    7.4666   14.5748   25.9983 C    0  0  0  0  0  0  0  0  0  0  0  0
    9.0460   14.4062   23.2231 N    0  0  0  0  0  0  0  0  0  0  0  0
   10.0606   15.2047   23.9933 C    0  0  0  0  0  0  0  0  0  0  0  0
   11.4649   15.2455   23.3454 C    0  0  0  0  0  0  0  0  0  0  0  0
   11.4043   15.7509   21.8872 C    0  0  0  0  0  0  0  0  0  0  0  0
    8.9806   14.8680   21.7912 C    0  0  0  0  0  0  0  0  0  0  0  0
   10.3635   14.9186   21.0865 C    0  0  0  0  0  0  0  0  0  0  0  0
   10.2701   15.4056   19.6461 C    0  0  0  0  0  0  0  0  0  0  0  0
    9.5740   16.3395   19.2842 O    0  0  0  0  0  0  0  0  0  0  0  0
   10.9254   14.6402   18.7594 N    0  0  0  0  0  0  0  0  0  0  0  0
    9.0049   13.0198   25.6796 H    0  0  0  0  0  0  0  0  0  0  0  0
    5.2766   14.6279   26.1471 H    0  0  0  0  0  0  0  0  0  0  0  0
    6.0995   14.4300   27.7159 H    0  0  0  0  0  0  0  0  0  0  0  0
    7.3010   15.4189   25.3238 H    0  0  0  0  0  0  0  0  0  0  0  0
    8.1706   14.9003   26.7673 H    0  0  0  0  0  0  0  0  0  0  0  0
    9.6879   16.2269   24.1127 H    0  0  0  0  0  0  0  0  0  0  0  0
   10.2198   14.8271   24.9990 H    0  0  0  0  0  0  0  0  0  0  0  0
   12.1119   15.9023   23.9270 H    0  0  0  0  0  0  0  0  0  0  0  0
   11.9099   14.2489   23.3733 H    0  0  0  0  0  0  0  0  0  0  0  0
   11.1521   16.8180   21.8664 H    0  0  0  0  0  0  0  0  0  0  0  0
   12.3931   15.6520   21.4287 H    0  0  0  0  0  0  0  0  0  0  0  0
    8.5099   15.8548   21.7778 H    0  0  0  0  0  0  0  0  0  0  0  0
    8.3416   14.2406   21.1622 H    0  0  0  0  0  0  0  0  0  0  0  0
   10.7306   13.8813   21.0814 H    0  0  0  0  0  0  0  0  0  0  0  0
   11.2530   13.7270   19.0762 H    0  0  0  0  0  0  0  0  0  0  0  0
   10.8081   14.8275   17.7766 H    0  0  0  0  0  0  0  0  0  0  0  0
  2 11  1  0  0  0  0
  3  2  1  0  0  0  0
 10  3  1  0  0  0  0
  1  2  2  0  0  0  0
 20  3  1  0  0  0  0
  4  3  1  0  0  0  0
  5  4  1  0  0  0  0
  6  5  2  0  0  0  0
  7  6  1  0  0  0  0
  8  7  1  0  0  0  0
  9  8  1  0  0  0  0
 21  9  1  0  0  0  0
 22  9  1  0  0  0  0
 23 10  1  0  0  0  0
 24 10  1  0  0  0  0
 12 11  1  0  0  0  0
 25 12  1  0  0  0  0
 26 12  1  0  0  0  0
 13 12  1  0  0  0  0
 27 13  1  0  0  0  0
 28 13  1  0  0  0  0
 14 13  1  0  0  0  0
 29 14  1  0  0  0  0
 30 14  1  0  0  0  0
 15 11  1  0  0  0  0
 31 15  1  0  0  0  0
 32 15  1  0  0  0  0
 16 14  1  0  0  0  0
 17 16  1  0  0  0  0
 33 16  1  0  0  0  0
 18 17  2  0  0  0  0
 19 17  1  0  0  0  0
 34 19  1  0  0  0  0
 35 19  1  0  0  0  0
  8  4  2  0  0  0  0
 10  9  1  0  0  0  0
 16 15  1  0  0  0  0
M  END
>  <FittedScore>
-29.07

$$$$
