A71EV2A-x4472a_best-RMSD
  FITTED

 35 37     0  0  0  0  0  0  0999 V2000
    7.3880   12.9023   23.0191 O    0  0  0  0  0  0  0  0  0  0  0  0
    8.1451   13.4929   23.7670 C    0  0  0  0  0  0  0  0  0  0  0  0
    7.9909   13.3063   25.2897 C    0  0  0  0  0  0  0  0  0  0  0  0
    7.0254   12.2063   25.6792 C    0  0  0  0  0  0  0  0  0  0  0  0
    7.2247   10.7691   25.8582 N    0  0  0  0  0  0  0  0  0  0  0  0
    6.3275   10.2716   26.6308 N    0  0  0  0  0  0  0  0  0  0  0  0
    5.2471   11.3679   27.3009 S    0  0  0  0  0  0  0  0  0  0  0  0
    6.0318   12.6714   26.4621 C    0  0  0  0  0  0  0  0  0  0  0  0
    6.0490   14.1580   26.6404 C    0  0  0  0  0  0  0  0  0  0  0  0
    7.3960   14.5816   25.9934 C    0  0  0  0  0  0  0  0  0  0  0  0
    9.0385   14.4139   23.2586 N    0  0  0  0  0  0  0  0  0  0  0  0
   10.0836   15.1605   24.0418 C    0  0  0  0  0  0  0  0  0  0  0  0
   11.4758   15.1913   23.3602 C    0  0  0  0  0  0  0  0  0  0  0  0
   11.4007   15.7064   21.9032 C    0  0  0  0  0  0  0  0  0  0  0  0
    8.9685   14.9129   21.8420 C    0  0  0  0  0  0  0  0  0  0  0  0
   10.3413   14.9035   21.1058 C    0  0  0  0  0  0  0  0  0  0  0  0
   10.2538   15.3844   19.6557 C    0  0  0  0  0  0  0  0  0  0  0  0
    9.5606   16.3099   19.2716 O    0  0  0  0  0  0  0  0  0  0  0  0
   10.8855   14.5951   18.7686 N    0  0  0  0  0  0  0  0  0  0  0  0
    8.9525   13.0350   25.7341 H    0  0  0  0  0  0  0  0  0  0  0  0
    5.2023   14.6162   26.1235 H    0  0  0  0  0  0  0  0  0  0  0  0
    6.0130   14.4285   27.6987 H    0  0  0  0  0  0  0  0  0  0  0  0
    7.2250   15.4097   25.3001 H    0  0  0  0  0  0  0  0  0  0  0  0
    8.0892   14.9351   26.7614 H    0  0  0  0  0  0  0  0  0  0  0  0
    9.7370   16.1844   24.2074 H    0  0  0  0  0  0  0  0  0  0  0  0
   10.2489   14.7480   25.0350 H    0  0  0  0  0  0  0  0  0  0  0  0
   12.1493   15.8297   23.9372 H    0  0  0  0  0  0  0  0  0  0  0  0
   11.9094   14.1878   23.3727 H    0  0  0  0  0  0  0  0  0  0  0  0
   11.1510   16.7723   21.8973 H    0  0  0  0  0  0  0  0  0  0  0  0
   12.3809   15.6028   21.4295 H    0  0  0  0  0  0  0  0  0  0  0  0
    8.5607   15.9303   21.8623 H    0  0  0  0  0  0  0  0  0  0  0  0
    8.2745   14.3411   21.2203 H    0  0  0  0  0  0  0  0  0  0  0  0
   10.6676   13.8546   21.1059 H    0  0  0  0  0  0  0  0  0  0  0  0
   10.8161   14.7992   17.7808 H    0  0  0  0  0  0  0  0  0  0  0  0
   11.2141   13.6756   19.0622 H    0  0  0  0  0  0  0  0  0  0  0  0
  2 11  1  0  0  0  0
  3  2  1  0  0  0  0
 10  3  1  0  0  0  0
  1  2  2  0  0  0  0
 20  3  1  0  0  0  0
  4  3  1  0  0  0  0
  5  4  1  0  0  0  0
  6  5  2  0  0  0  0
  7  6  1  0  0  0  0
  8  7  1  0  0  0  0
  9  8  1  0  0  0  0
 21  9  1  0  0  0  0
 22  9  1  0  0  0  0
 23 10  1  0  0  0  0
 24 10  1  0  0  0  0
 12 11  1  0  0  0  0
 25 12  1  0  0  0  0
 26 12  1  0  0  0  0
 13 12  1  0  0  0  0
 27 13  1  0  0  0  0
 28 13  1  0  0  0  0
 14 13  1  0  0  0  0
 29 14  1  0  0  0  0
 30 14  1  0  0  0  0
 15 11  1  0  0  0  0
 31 15  1  0  0  0  0
 32 15  1  0  0  0  0
 16 14  1  0  0  0  0
 17 16  1  0  0  0  0
 33 16  1  0  0  0  0
 18 17  2  0  0  0  0
 19 17  1  0  0  0  0
 34 19  1  0  0  0  0
 35 19  1  0  0  0  0
  8  4  2  0  0  0  0
 10  9  1  0  0  0  0
 16 15  1  0  0  0  0
M  END
>  <FittedScore>
-28.35

$$$$
