A71EV2A-x3279a_lowest-energy
  FITTED

 33 34     0  0  0  0  0  0  0999 V2000
    9.4325    9.8519   23.5949 C    0  0  0  0  0  0  0  0  0  0  0  0
    8.6276   10.7783   24.5148 C    0  0  0  0  0  0  0  0  0  0  0  0
    7.5433   10.2289   25.2230 C    0  0  0  0  0  0  0  0  0  0  0  0
    6.7538   11.0248   26.0638 C    0  0  0  0  0  0  0  0  0  0  0  0
    5.6306   10.4001   26.8783 C    0  0  0  0  0  0  0  0  0  0  0  0
    8.9468   12.1530   24.6851 C    0  0  0  0  0  0  0  0  0  0  0  0
    8.1446   12.9614   25.5393 C    0  0  0  0  0  0  0  0  0  0  0  0
    8.4472   14.4321   25.8602 C    0  0  0  0  0  0  0  0  0  0  0  0
    7.0515   12.3864   26.1993 C    0  0  0  0  0  0  0  0  0  0  0  0
   10.0640   12.6474   24.0489 N    0  0  0  0  0  0  0  0  0  0  0  0
   10.3387   13.6478   23.1589 C    0  0  0  0  0  0  0  0  0  0  0  0
    9.3662   14.6188   22.6087 N    0  0  0  0  0  0  0  0  0  0  0  0
   10.1677   15.2272   21.6834 N    0  0  0  0  0  0  0  0  0  0  0  0
    9.5393   16.0339   20.6281 C    0  0  0  0  0  0  0  0  0  0  0  0
   11.4582   14.8020   21.6563 C    0  0  0  0  0  0  0  0  0  0  0  0
   11.5807   13.8093   22.5932 C    0  0  0  0  0  0  0  0  0  0  0  0
    9.0109    8.8458   23.5367 H    0  0  0  0  0  0  0  0  0  0  0  0
   10.4604    9.7556   23.9513 H    0  0  0  0  0  0  0  0  0  0  0  0
    9.4564   10.2490   22.5767 H    0  0  0  0  0  0  0  0  0  0  0  0
    7.3078    9.1696   25.1256 H    0  0  0  0  0  0  0  0  0  0  0  0
    6.0255   10.0231   27.8245 H    0  0  0  0  0  0  0  0  0  0  0  0
    5.1671    9.5662   26.3458 H    0  0  0  0  0  0  0  0  0  0  0  0
    4.8432   11.1235   27.1052 H    0  0  0  0  0  0  0  0  0  0  0  0
    9.5163   14.6521   25.8435 H    0  0  0  0  0  0  0  0  0  0  0  0
    8.0967   14.7167   26.8549 H    0  0  0  0  0  0  0  0  0  0  0  0
    7.9519   15.0835   25.1382 H    0  0  0  0  0  0  0  0  0  0  0  0
    6.4415   12.9965   26.8626 H    0  0  0  0  0  0  0  0  0  0  0  0
   10.8199   11.9730   24.0698 H    0  0  0  0  0  0  0  0  0  0  0  0
    8.5266   16.3271   20.9122 H    0  0  0  0  0  0  0  0  0  0  0  0
    9.4712   15.5001   19.6746 H    0  0  0  0  0  0  0  0  0  0  0  0
   10.0990   16.9509   20.4229 H    0  0  0  0  0  0  0  0  0  0  0  0
   12.2365   15.1659   20.9909 H    0  0  0  0  0  0  0  0  0  0  0  0
   12.4760   13.2309   22.8100 H    0  0  0  0  0  0  0  0  0  0  0  0
  2  6  2  0  0  0  0
  1  2  1  0  0  0  0
 17  1  1  0  0  0  0
 18  1  1  0  0  0  0
 19  1  1  0  0  0  0
  3  2  1  0  0  0  0
 20  3  1  0  0  0  0
  4  3  2  0  0  0  0
  9  4  1  0  0  0  0
  5  4  1  0  0  0  0
 21  5  1  0  0  0  0
 22  5  1  0  0  0  0
 23  5  1  0  0  0  0
  7  6  1  0  0  0  0
  8  7  1  0  0  0  0
 24  8  1  0  0  0  0
 25  8  1  0  0  0  0
 26  8  1  0  0  0  0
 27  9  1  0  0  0  0
 10  6  1  0  0  0  0
 28 10  1  0  0  0  0
 11 10  1  0  0  0  0
 16 11  1  0  0  0  0
 12 11  2  0  0  0  0
 13 12  1  0  0  0  0
 14 13  1  0  0  0  0
 29 14  1  0  0  0  0
 30 14  1  0  0  0  0
 31 14  1  0  0  0  0
 15 13  1  0  0  0  0
 32 15  1  0  0  0  0
 33 16  1  0  0  0  0
  9  7  2  0  0  0  0
 16 15  2  0  0  0  0
M  END
>  <FittedScore>
-29.88

$$$$
