A71EV2A-x3279a_best-RMSD
  FITTED

 33 34     0  0  0  0  0  0  0999 V2000
    9.4280    9.8093   23.5461 C    0  0  0  0  0  0  0  0  0  0  0  0
    8.6505   10.7318   24.5004 C    0  0  0  0  0  0  0  0  0  0  0  0
    7.5663   10.1859   25.2097 C    0  0  0  0  0  0  0  0  0  0  0  0
    6.8024   10.9711   26.0826 C    0  0  0  0  0  0  0  0  0  0  0  0
    5.6724   10.3477   26.8901 C    0  0  0  0  0  0  0  0  0  0  0  0
    8.9849   12.1007   24.6894 C    0  0  0  0  0  0  0  0  0  0  0  0
    8.2087   12.9040   25.5722 C    0  0  0  0  0  0  0  0  0  0  0  0
    8.5415   14.3660   25.9092 C    0  0  0  0  0  0  0  0  0  0  0  0
    7.1155   12.3256   26.2425 C    0  0  0  0  0  0  0  0  0  0  0  0
   10.0917   12.6007   24.0416 N    0  0  0  0  0  0  0  0  0  0  0  0
   10.3496   13.6143   23.1678 C    0  0  0  0  0  0  0  0  0  0  0  0
    9.3655   14.5822   22.6353 N    0  0  0  0  0  0  0  0  0  0  0  0
   10.1611   15.2355   21.7367 N    0  0  0  0  0  0  0  0  0  0  0  0
    9.5191   16.0493   20.6945 C    0  0  0  0  0  0  0  0  0  0  0  0
   11.4579   14.8264   21.7030 C    0  0  0  0  0  0  0  0  0  0  0  0
   11.5906   13.8079   22.6123 C    0  0  0  0  0  0  0  0  0  0  0  0
   10.5033    9.8571   23.7366 H    0  0  0  0  0  0  0  0  0  0  0  0
    9.2527   10.1007   22.5075 H    0  0  0  0  0  0  0  0  0  0  0  0
    9.1339    8.7613   23.6504 H    0  0  0  0  0  0  0  0  0  0  0  0
    7.3142    9.1330   25.0861 H    0  0  0  0  0  0  0  0  0  0  0  0
    5.1948    9.5299   26.3416 H    0  0  0  0  0  0  0  0  0  0  0  0
    4.8947   11.0780   27.1247 H    0  0  0  0  0  0  0  0  0  0  0  0
    6.0562    9.9461   27.8303 H    0  0  0  0  0  0  0  0  0  0  0  0
    8.0809   15.0368   25.1816 H    0  0  0  0  0  0  0  0  0  0  0  0
    9.6192   14.5525   25.9198 H    0  0  0  0  0  0  0  0  0  0  0  0
    8.1748   14.6528   26.8968 H    0  0  0  0  0  0  0  0  0  0  0  0
    6.5176   12.9293   26.9215 H    0  0  0  0  0  0  0  0  0  0  0  0
   10.8528   11.9336   24.0496 H    0  0  0  0  0  0  0  0  0  0  0  0
    9.0642   15.4199   19.9228 H    0  0  0  0  0  0  0  0  0  0  0  0
   10.2341   16.7115   20.1999 H    0  0  0  0  0  0  0  0  0  0  0  0
    8.7298   16.6903   21.1000 H    0  0  0  0  0  0  0  0  0  0  0  0
   12.2350   15.2247   21.0584 H    0  0  0  0  0  0  0  0  0  0  0  0
   12.4934   13.2376   22.8182 H    0  0  0  0  0  0  0  0  0  0  0  0
  2  6  2  0  0  0  0
  1  2  1  0  0  0  0
 17  1  1  0  0  0  0
 18  1  1  0  0  0  0
 19  1  1  0  0  0  0
  3  2  1  0  0  0  0
 20  3  1  0  0  0  0
  4  3  2  0  0  0  0
  9  4  1  0  0  0  0
  5  4  1  0  0  0  0
 21  5  1  0  0  0  0
 22  5  1  0  0  0  0
 23  5  1  0  0  0  0
  7  6  1  0  0  0  0
  8  7  1  0  0  0  0
 24  8  1  0  0  0  0
 25  8  1  0  0  0  0
 26  8  1  0  0  0  0
 27  9  1  0  0  0  0
 10  6  1  0  0  0  0
 28 10  1  0  0  0  0
 11 10  1  0  0  0  0
 16 11  1  0  0  0  0
 12 11  2  0  0  0  0
 13 12  1  0  0  0  0
 14 13  1  0  0  0  0
 29 14  1  0  0  0  0
 30 14  1  0  0  0  0
 31 14  1  0  0  0  0
 15 13  1  0  0  0  0
 32 15  1  0  0  0  0
 33 16  1  0  0  0  0
  9  7  2  0  0  0  0
 16 15  2  0  0  0  0
M  END
>  <FittedScore>
-28.73

$$$$
