A71EV2A-x7491b_lowest-energy
  FITTED

 59 61     0  0  0  0  0  0  0999 V2000
    9.8830   16.6795   19.3415 O    0  0  0  0  0  0  0  0  0  0  0  0
   10.3476   15.6167   19.6992 C    0  0  0  0  0  0  0  0  0  0  0  0
   10.7907   14.7180   18.8027 N    0  0  0  0  0  0  0  0  0  0  0  0
   10.3731   15.1710   21.1509 C    0  0  0  0  0  0  0  0  0  0  0  0
   11.4489   15.9638   21.9505 C    0  0  0  0  0  0  0  0  0  0  0  0
   11.4233   15.5493   23.4444 C    0  0  0  0  0  0  0  0  0  0  0  0
    9.9847   15.6149   24.0275 C    0  0  0  0  0  0  0  0  0  0  0  0
    8.9642   15.2877   21.8176 C    0  0  0  0  0  0  0  0  0  0  0  0
    8.9982   14.8036   23.2310 N    0  0  0  0  0  0  0  0  0  0  0  0
    8.3595   13.6524   23.6359 C    0  0  0  0  0  0  0  0  0  0  0  0
    7.5771   13.0607   22.9052 O    0  0  0  0  0  0  0  0  0  0  0  0
    8.8001   13.0055   24.9451 C    0  0  0  0  0  0  0  0  0  0  0  0
    7.9431   11.8047   25.3676 C    0  0  0  0  0  0  0  0  0  0  0  0
    8.2247   10.5098   24.8574 C    0  0  0  0  0  0  0  0  0  0  0  0
    9.5476   10.2700   23.6801 S    0  0  0  0  0  0  0  0  0  0  0  0
    9.7414    8.4906   23.4544 C    0  0  0  0  0  0  0  0  0  0  0  0
    6.7768   11.9414   26.1783 C    0  0  0  0  0  0  0  0  0  0  0  0
    6.0478   10.8463   26.5205 N    0  0  0  0  0  0  0  0  0  0  0  0
    6.4188    9.6358   26.0392 C    0  0  0  0  0  0  0  0  0  0  0  0
    7.4657    9.4338   25.2039 N    0  0  0  0  0  0  0  0  0  0  0  0
    6.2415   13.1445   26.6054 N    0  0  0  0  0  0  0  0  0  0  0  0
    6.8747   14.0134   27.6284 C    0  0  0  0  0  0  0  0  0  0  0  0
    6.2005   13.9258   29.0460 C    0  0  0  0  0  0  0  0  0  0  0  0
    5.9809   12.4687   29.5453 C    0  0  0  0  0  0  0  0  0  0  0  0
    7.0427   14.6842   30.1155 C    0  0  0  0  0  0  0  0  0  0  0  0
    6.8018   15.4367   26.9872 C    0  0  0  0  0  0  0  0  0  0  0  0
    5.9020   15.3465   25.7418 C    0  0  0  0  0  0  0  0  0  0  0  0
    5.3670   13.9088   25.7081 C    0  0  0  0  0  0  0  0  0  0  0  0
   10.7753   14.9407   17.8149 H    0  0  0  0  0  0  0  0  0  0  0  0
   10.9794   13.7625   19.1013 H    0  0  0  0  0  0  0  0  0  0  0  0
   10.6568   14.1093   21.2004 H    0  0  0  0  0  0  0  0  0  0  0  0
   12.4411   15.7670   21.5366 H    0  0  0  0  0  0  0  0  0  0  0  0
   11.2694   17.0420   21.8653 H    0  0  0  0  0  0  0  0  0  0  0  0
   11.8207   14.5357   23.5588 H    0  0  0  0  0  0  0  0  0  0  0  0
   12.0778   16.2147   24.0142 H    0  0  0  0  0  0  0  0  0  0  0  0
   10.0370   15.3629   25.0832 H    0  0  0  0  0  0  0  0  0  0  0  0
    9.6487   16.6562   24.0378 H    0  0  0  0  0  0  0  0  0  0  0  0
    8.2406   14.7468   21.2008 H    0  0  0  0  0  0  0  0  0  0  0  0
    8.6250   16.3288   21.8087 H    0  0  0  0  0  0  0  0  0  0  0  0
    9.8559   12.7313   24.8719 H    0  0  0  0  0  0  0  0  0  0  0  0
    8.8009   13.7239   25.7470 H    0  0  0  0  0  0  0  0  0  0  0  0
    9.8865    8.0040   24.4198 H    0  0  0  0  0  0  0  0  0  0  0  0
   10.6146    8.2893   22.8329 H    0  0  0  0  0  0  0  0  0  0  0  0
    8.8587    8.0781   22.9611 H    0  0  0  0  0  0  0  0  0  0  0  0
    5.8256    8.7729   26.3325 H    0  0  0  0  0  0  0  0  0  0  0  0
    7.9242   13.7458   27.7737 H    0  0  0  0  0  0  0  0  0  0  0  0
    5.2125   14.3989   28.9945 H    0  0  0  0  0  0  0  0  0  0  0  0
    5.1350   12.0054   29.0308 H    0  0  0  0  0  0  0  0  0  0  0  0
    5.7380   12.4346   30.6108 H    0  0  0  0  0  0  0  0  0  0  0  0
    6.8641   11.8428   29.3873 H    0  0  0  0  0  0  0  0  0  0  0  0
    7.2649   15.7092   29.8245 H    0  0  0  0  0  0  0  0  0  0  0  0
    7.9917   14.1786   30.3122 H    0  0  0  0  0  0  0  0  0  0  0  0
    6.4990   14.7387   31.0595 H    0  0  0  0  0  0  0  0  0  0  0  0
    6.3974   16.1937   27.6641 H    0  0  0  0  0  0  0  0  0  0  0  0
    7.8005   15.7688   26.6979 H    0  0  0  0  0  0  0  0  0  0  0  0
    5.0782   16.0627   25.7935 H    0  0  0  0  0  0  0  0  0  0  0  0
    6.4739   15.5661   24.8380 H    0  0  0  0  0  0  0  0  0  0  0  0
    4.3319   13.8734   26.0579 H    0  0  0  0  0  0  0  0  0  0  0  0
    5.3646   13.5323   24.6797 H    0  0  0  0  0  0  0  0  0  0  0  0
 10 12  1  0  0  0  0
  9 10  1  0  0  0  0
  7  9  1  0  0  0  0
  6  7  1  0  0  0  0
  5  6  1  0  0  0  0
  4  5  1  0  0  0  0
  2  4  1  0  0  0  0
  1  2  2  0  0  0  0
  3  2  1  0  0  0  0
 29  3  1  0  0  0  0
 30  3  1  0  0  0  0
 31  4  1  0  0  0  0
 32  5  1  0  0  0  0
 33  5  1  0  0  0  0
 34  6  1  0  0  0  0
 35  6  1  0  0  0  0
 36  7  1  0  0  0  0
 37  7  1  0  0  0  0
  8  4  1  0  0  0  0
 38  8  1  0  0  0  0
 39  8  1  0  0  0  0
 11 10  2  0  0  0  0
 40 12  1  0  0  0  0
 41 12  1  0  0  0  0
 13 12  1  0  0  0  0
 14 13  1  0  0  0  0
 20 14  2  0  0  0  0
 15 14  1  0  0  0  0
 16 15  1  0  0  0  0
 42 16  1  0  0  0  0
 43 16  1  0  0  0  0
 44 16  1  0  0  0  0
 17 13  2  0  0  0  0
 18 17  1  0  0  0  0
 19 18  2  0  0  0  0
 45 19  1  0  0  0  0
 21 17  1  0  0  0  0
 28 21  1  0  0  0  0
 22 21  1  0  0  0  0
 23 22  1  0  0  0  0
 46 22  1  0  0  0  0
 47 23  1  0  0  0  0
 24 23  1  0  0  0  0
 48 24  1  0  0  0  0
 49 24  1  0  0  0  0
 50 24  1  0  0  0  0
 25 23  1  0  0  0  0
 51 25  1  0  0  0  0
 52 25  1  0  0  0  0
 53 25  1  0  0  0  0
 26 22  1  0  0  0  0
 54 26  1  0  0  0  0
 55 26  1  0  0  0  0
 27 26  1  0  0  0  0
 56 27  1  0  0  0  0
 57 27  1  0  0  0  0
 58 28  1  0  0  0  0
 59 28  1  0  0  0  0
  9  8  1  0  0  0  0
 20 19  1  0  0  0  0
 28 27  1  0  0  0  0
M  END
>  <FittedScore>
-34.88

$$$$
