A71EV2A-x4963b_best-RMSD
  FITTED

 45 47     0  0  0  0  0  0  0999 V2000
    9.2122   13.6678   25.3476 O    0  0  0  0  0  0  0  0  0  0  0  0
    8.6884   13.7932   24.2562 C    0  0  0  0  0  0  0  0  0  0  0  0
    7.2759   13.2410   24.0170 C    0  0  0  0  0  0  0  0  0  0  0  0
    6.9039   12.0781   24.9379 C    0  0  0  0  0  0  0  0  0  0  0  0
    7.4846   10.7993   24.7691 C    0  0  0  0  0  0  0  0  0  0  0  0
    8.4980   10.6387   23.8231 O    0  0  0  0  0  0  0  0  0  0  0  0
    9.1753    9.4022   23.4977 C    0  0  0  0  0  0  0  0  0  0  0  0
    7.0040    9.7273   25.5510 C    0  0  0  0  0  0  0  0  0  0  0  0
    6.0072    9.9292   26.5141 C    0  0  0  0  0  0  0  0  0  0  0  0
    5.4752   11.2061   26.7099 C    0  0  0  0  0  0  0  0  0  0  0  0
    5.9194   12.2753   25.9252 C    0  0  0  0  0  0  0  0  0  0  0  0
    9.2953   14.4550   23.2182 N    0  0  0  0  0  0  0  0  0  0  0  0
    8.8127   14.5806   21.8288 C    0  0  0  0  0  0  0  0  0  0  0  0
    9.9978   15.3275   21.3087 C    0  0  0  0  0  0  0  0  0  0  0  0
   10.3402   16.5105   22.2721 C    0  0  0  0  0  0  0  0  0  0  0  0
   10.2997   15.9482   19.9128 C    0  0  0  0  0  0  0  0  0  0  0  0
    9.9581   17.0283   19.4621 O    0  0  0  0  0  0  0  0  0  0  0  0
   10.6334   15.0230   18.9807 N    0  0  0  0  0  0  0  0  0  0  0  0
   11.3545   14.7473   21.8323 C    0  0  0  0  0  0  0  0  0  0  0  0
   10.6032   15.2209   23.1403 C    0  0  0  0  0  0  0  0  0  0  0  0
   11.5120   15.4677   24.3691 C    0  0  0  0  0  0  0  0  0  0  0  0
   10.8078   16.2506   25.3820 O    0  0  0  0  0  0  0  0  0  0  0  0
   11.3493   16.2272   26.7270 C    0  0  0  0  0  0  0  0  0  0  0  0
    7.1354   12.8723   22.9990 H    0  0  0  0  0  0  0  0  0  0  0  0
    6.5640   14.0657   24.1098 H    0  0  0  0  0  0  0  0  0  0  0  0
    9.9140    9.5972   22.7184 H    0  0  0  0  0  0  0  0  0  0  0  0
    8.4637    8.6621   23.1221 H    0  0  0  0  0  0  0  0  0  0  0  0
    9.6891    9.0035   24.3745 H    0  0  0  0  0  0  0  0  0  0  0  0
    7.3966    8.7232   25.4326 H    0  0  0  0  0  0  0  0  0  0  0  0
    5.6492    9.0887   27.1077 H    0  0  0  0  0  0  0  0  0  0  0  0
    4.7038   11.3618   27.4560 H    0  0  0  0  0  0  0  0  0  0  0  0
    5.4779   13.2561   26.0812 H    0  0  0  0  0  0  0  0  0  0  0  0
    8.7095   13.6135   21.3360 H    0  0  0  0  0  0  0  0  0  0  0  0
    7.8935   15.1595   21.7507 H    0  0  0  0  0  0  0  0  0  0  0  0
   11.1867   17.1877   22.0583 H    0  0  0  0  0  0  0  0  0  0  0  0
    9.4978   17.1392   22.5833 H    0  0  0  0  0  0  0  0  0  0  0  0
   10.6281   15.2743   17.9922 H    0  0  0  0  0  0  0  0  0  0  0  0
   10.6859   14.0373   19.2331 H    0  0  0  0  0  0  0  0  0  0  0  0
   12.3115   15.2234   21.5630 H    0  0  0  0  0  0  0  0  0  0  0  0
   11.4952   13.6655   21.7260 H    0  0  0  0  0  0  0  0  0  0  0  0
   11.8056   14.4987   24.7786 H    0  0  0  0  0  0  0  0  0  0  0  0
   12.4294   15.9925   24.0947 H    0  0  0  0  0  0  0  0  0  0  0  0
   12.3747   16.6065   26.7332 H    0  0  0  0  0  0  0  0  0  0  0  0
   11.3401   15.2044   27.1172 H    0  0  0  0  0  0  0  0  0  0  0  0
   10.7364   16.8559   27.3759 H    0  0  0  0  0  0  0  0  0  0  0  0
  2  1  2  0  0  0  0
  3  2  1  0  0  0  0
 24  3  1  0  0  0  0
 25  3  1  0  0  0  0
  4  3  1  0  0  0  0
 11  4  2  0  0  0  0
  5  4  1  0  0  0  0
  6  5  1  0  0  0  0
  7  6  1  0  0  0  0
 26  7  1  0  0  0  0
 27  7  1  0  0  0  0
 28  7  1  0  0  0  0
  8  5  2  0  0  0  0
 29  8  1  0  0  0  0
  9  8  1  0  0  0  0
 30  9  1  0  0  0  0
 10  9  2  0  0  0  0
 31 10  1  0  0  0  0
 32 11  1  0  0  0  0
 12  2  1  0  0  0  0
 13 12  1  0  0  0  0
 33 13  1  0  0  0  0
 34 13  1  0  0  0  0
 14 13  1  0  0  0  0
 16 14  1  0  0  0  0
 15 14  1  0  0  0  0
 35 15  1  0  0  0  0
 36 15  1  0  0  0  0
 17 16  2  0  0  0  0
 18 16  1  0  0  0  0
 37 18  1  0  0  0  0
 38 18  1  0  0  0  0
 19 14  1  0  0  0  0
 39 19  1  0  0  0  0
 40 19  1  0  0  0  0
 20 15  1  0  0  0  0
 21 20  1  0  0  0  0
 41 21  1  0  0  0  0
 42 21  1  0  0  0  0
 22 21  1  0  0  0  0
 23 22  1  0  0  0  0
 43 23  1  0  0  0  0
 44 23  1  0  0  0  0
 45 23  1  0  0  0  0
 11 10  1  0  0  0  0
 20 12  1  0  0  0  0
 20 19  1  0  0  0  0
M  END
>  <FittedScore>
-29.10

$$$$
