A71EV2A-x4963b_lowest-energy
  FITTED

 45 47     0  0  0  0  0  0  0999 V2000
    9.2062   13.6545   25.3667 O    0  0  0  0  0  0  0  0  0  0  0  0
    8.6670   13.7754   24.2793 C    0  0  0  0  0  0  0  0  0  0  0  0
    7.2404   13.2614   24.0849 C    0  0  0  0  0  0  0  0  0  0  0  0
    6.8815   12.0856   24.9949 C    0  0  0  0  0  0  0  0  0  0  0  0
    7.4637   10.8071   24.8134 C    0  0  0  0  0  0  0  0  0  0  0  0
    8.4685   10.6561   23.8582 O    0  0  0  0  0  0  0  0  0  0  0  0
    9.1858    9.4388   23.5527 C    0  0  0  0  0  0  0  0  0  0  0  0
    6.9947    9.7293   25.5923 C    0  0  0  0  0  0  0  0  0  0  0  0
    5.9983    9.9236   26.5575 C    0  0  0  0  0  0  0  0  0  0  0  0
    5.4767   11.2024   26.7789 C    0  0  0  0  0  0  0  0  0  0  0  0
    5.9188   12.2795   26.0036 C    0  0  0  0  0  0  0  0  0  0  0  0
    9.2582   14.4390   23.2347 N    0  0  0  0  0  0  0  0  0  0  0  0
    8.7625   14.5821   21.8451 C    0  0  0  0  0  0  0  0  0  0  0  0
    9.9420   15.3466   21.3276 C    0  0  0  0  0  0  0  0  0  0  0  0
   10.2682   16.5214   22.3093 C    0  0  0  0  0  0  0  0  0  0  0  0
   10.2645   15.9660   19.9287 C    0  0  0  0  0  0  0  0  0  0  0  0
    9.9497   17.0434   19.4580 O    0  0  0  0  0  0  0  0  0  0  0  0
   10.6079   15.0347   19.0100 N    0  0  0  0  0  0  0  0  0  0  0  0
   11.3053   14.7749   21.8472 C    0  0  0  0  0  0  0  0  0  0  0  0
   10.5526   15.2215   23.1629 C    0  0  0  0  0  0  0  0  0  0  0  0
   11.4799   15.4198   24.3868 C    0  0  0  0  0  0  0  0  0  0  0  0
   10.8041   16.1995   25.4234 O    0  0  0  0  0  0  0  0  0  0  0  0
   11.3780   16.1560   26.7548 C    0  0  0  0  0  0  0  0  0  0  0  0
    7.0585   12.9261   23.0621 H    0  0  0  0  0  0  0  0  0  0  0  0
    6.5645   14.1071   24.2413 H    0  0  0  0  0  0  0  0  0  0  0  0
    9.7263    9.0873   24.4352 H    0  0  0  0  0  0  0  0  0  0  0  0
    9.9032    9.6435   22.7566 H    0  0  0  0  0  0  0  0  0  0  0  0
    8.4957    8.6667   23.2060 H    0  0  0  0  0  0  0  0  0  0  0  0
    7.3998    8.7278   25.4748 H    0  0  0  0  0  0  0  0  0  0  0  0
    5.6379    9.0779   27.1398 H    0  0  0  0  0  0  0  0  0  0  0  0
    4.7218   11.3611   27.5436 H    0  0  0  0  0  0  0  0  0  0  0  0
    5.4980   13.2658   26.1807 H    0  0  0  0  0  0  0  0  0  0  0  0
    8.6513   13.6208   21.3372 H    0  0  0  0  0  0  0  0  0  0  0  0
    7.8394   15.1641   21.7742 H    0  0  0  0  0  0  0  0  0  0  0  0
   11.1030   17.2149   22.1037 H    0  0  0  0  0  0  0  0  0  0  0  0
    9.4156   17.1364   22.6259 H    0  0  0  0  0  0  0  0  0  0  0  0
   10.6762   14.0587   19.2907 H    0  0  0  0  0  0  0  0  0  0  0  0
   10.6565   15.2740   18.0206 H    0  0  0  0  0  0  0  0  0  0  0  0
   12.2535   15.2736   21.5835 H    0  0  0  0  0  0  0  0  0  0  0  0
   11.4604   13.6963   21.7246 H    0  0  0  0  0  0  0  0  0  0  0  0
   11.7528   14.4318   24.7749 H    0  0  0  0  0  0  0  0  0  0  0  0
   12.4061   15.9276   24.1138 H    0  0  0  0  0  0  0  0  0  0  0  0
   10.7767   16.7768   27.4207 H    0  0  0  0  0  0  0  0  0  0  0  0
   12.4008   16.5407   26.7383 H    0  0  0  0  0  0  0  0  0  0  0  0
   11.3846   15.1317   27.1382 H    0  0  0  0  0  0  0  0  0  0  0  0
  2  1  2  0  0  0  0
  3  2  1  0  0  0  0
 24  3  1  0  0  0  0
 25  3  1  0  0  0  0
  4  3  1  0  0  0  0
 11  4  2  0  0  0  0
  5  4  1  0  0  0  0
  6  5  1  0  0  0  0
  7  6  1  0  0  0  0
 26  7  1  0  0  0  0
 27  7  1  0  0  0  0
 28  7  1  0  0  0  0
  8  5  2  0  0  0  0
 29  8  1  0  0  0  0
  9  8  1  0  0  0  0
 30  9  1  0  0  0  0
 10  9  2  0  0  0  0
 31 10  1  0  0  0  0
 32 11  1  0  0  0  0
 12  2  1  0  0  0  0
 13 12  1  0  0  0  0
 33 13  1  0  0  0  0
 34 13  1  0  0  0  0
 14 13  1  0  0  0  0
 16 14  1  0  0  0  0
 15 14  1  0  0  0  0
 35 15  1  0  0  0  0
 36 15  1  0  0  0  0
 17 16  2  0  0  0  0
 18 16  1  0  0  0  0
 37 18  1  0  0  0  0
 38 18  1  0  0  0  0
 19 14  1  0  0  0  0
 39 19  1  0  0  0  0
 40 19  1  0  0  0  0
 20 15  1  0  0  0  0
 21 20  1  0  0  0  0
 41 21  1  0  0  0  0
 42 21  1  0  0  0  0
 22 21  1  0  0  0  0
 23 22  1  0  0  0  0
 43 23  1  0  0  0  0
 44 23  1  0  0  0  0
 45 23  1  0  0  0  0
 11 10  1  0  0  0  0
 20 12  1  0  0  0  0
 20 19  1  0  0  0  0
M  END
>  <FittedScore>
-28.71

$$$$
