A71EV2A-x4416a_lowest-energy
  FITTED

 50 52     0  0  0  0  0  0  0999 V2000
    9.5146    7.7548   23.4159 F    0  0  0  0  0  0  0  0  0  0  0  0
    9.1859    8.9464   23.9382 C    0  0  0  0  0  0  0  0  0  0  0  0
    8.1328    9.0352   24.8579 C    0  0  0  0  0  0  0  0  0  0  0  0
    7.8040   10.2715   25.4289 C    0  0  0  0  0  0  0  0  0  0  0  0
    9.9316   10.0828   23.6037 C    0  0  0  0  0  0  0  0  0  0  0  0
    9.6094   11.3188   24.1765 C    0  0  0  0  0  0  0  0  0  0  0  0
    8.5356   11.4245   25.0858 C    0  0  0  0  0  0  0  0  0  0  0  0
    8.1596   12.7855   25.6684 C    0  0  0  0  0  0  0  0  0  0  0  0
    7.2150   13.6919   24.7970 C    0  0  0  0  0  0  0  0  0  0  0  0
    7.2233   15.0156   25.4312 O    0  0  0  0  0  0  0  0  0  0  0  0
    6.3247   16.0739   24.9545 C    0  0  0  0  0  0  0  0  0  0  0  0
    4.8513   15.5901   24.9877 C    0  0  0  0  0  0  0  0  0  0  0  0
    4.6867   14.1816   24.3581 C    0  0  0  0  0  0  0  0  0  0  0  0
    5.7242   13.1758   24.9356 C    0  0  0  0  0  0  0  0  0  0  0  0
    7.6881   13.7591   23.3078 C    0  0  0  0  0  0  0  0  0  0  0  0
    7.1799   13.0064   22.4935 O    0  0  0  0  0  0  0  0  0  0  0  0
    8.6590   14.6434   22.8804 N    0  0  0  0  0  0  0  0  0  0  0  0
    9.6849   15.3713   23.7075 C    0  0  0  0  0  0  0  0  0  0  0  0
   11.1421   15.1993   23.1967 C    0  0  0  0  0  0  0  0  0  0  0  0
   11.2798   15.5423   21.6929 C    0  0  0  0  0  0  0  0  0  0  0  0
    8.7662   15.0834   21.4552 C    0  0  0  0  0  0  0  0  0  0  0  0
   10.1801   14.8276   20.8558 C    0  0  0  0  0  0  0  0  0  0  0  0
   10.2671   15.2635   19.3997 C    0  0  0  0  0  0  0  0  0  0  0  0
    9.8251   16.3279   18.9951 O    0  0  0  0  0  0  0  0  0  0  0  0
   10.8041   14.3502   18.5627 N    0  0  0  0  0  0  0  0  0  0  0  0
    7.5695    8.1493   25.1331 H    0  0  0  0  0  0  0  0  0  0  0  0
    6.9738   10.3335   26.1310 H    0  0  0  0  0  0  0  0  0  0  0  0
   10.7602   10.0113   22.9054 H    0  0  0  0  0  0  0  0  0  0  0  0
   10.1860   12.1977   23.9007 H    0  0  0  0  0  0  0  0  0  0  0  0
    7.7150   12.6390   26.6568 H    0  0  0  0  0  0  0  0  0  0  0  0
    9.0870   13.3054   25.9087 H    0  0  0  0  0  0  0  0  0  0  0  0
    6.4496   16.9408   25.6064 H    0  0  0  0  0  0  0  0  0  0  0  0
    6.6031   16.3860   23.9457 H    0  0  0  0  0  0  0  0  0  0  0  0
    4.4982   15.5713   26.0236 H    0  0  0  0  0  0  0  0  0  0  0  0
    4.2205   16.3048   24.4530 H    0  0  0  0  0  0  0  0  0  0  0  0
    3.6780   13.8092   24.5526 H    0  0  0  0  0  0  0  0  0  0  0  0
    4.7902   14.2518   23.2724 H    0  0  0  0  0  0  0  0  0  0  0  0
    5.4722   13.0159   25.9904 H    0  0  0  0  0  0  0  0  0  0  0  0
    5.5982   12.2032   24.4510 H    0  0  0  0  0  0  0  0  0  0  0  0
    9.4276   16.4364   23.7433 H    0  0  0  0  0  0  0  0  0  0  0  0
    9.7005   15.0532   24.7421 H    0  0  0  0  0  0  0  0  0  0  0  0
   11.8069   15.8502   23.7689 H    0  0  0  0  0  0  0  0  0  0  0  0
   11.4798   14.1735   23.3731 H    0  0  0  0  0  0  0  0  0  0  0  0
   11.2047   16.6263   21.5582 H    0  0  0  0  0  0  0  0  0  0  0  0
   12.2711   15.2399   21.3396 H    0  0  0  0  0  0  0  0  0  0  0  0
    8.5180   16.1485   21.4066 H    0  0  0  0  0  0  0  0  0  0  0  0
    8.0203   14.6212   20.8046 H    0  0  0  0  0  0  0  0  0  0  0  0
   10.3579   13.7475   20.9325 H    0  0  0  0  0  0  0  0  0  0  0  0
   10.8160   14.5319   17.5685 H    0  0  0  0  0  0  0  0  0  0  0  0
   10.9972   13.4091   18.9000 H    0  0  0  0  0  0  0  0  0  0  0  0
  9 15  1  0  0  0  0
  8  9  1  0  0  0  0
  7  8  1  0  0  0  0
  4  7  2  0  0  0  0
  3  4  1  0  0  0  0
  2  3  2  0  0  0  0
  1  2  1  0  0  0  0
 26  3  1  0  0  0  0
 27  4  1  0  0  0  0
  5  2  1  0  0  0  0
 28  5  1  0  0  0  0
  6  5  2  0  0  0  0
 29  6  1  0  0  0  0
 30  8  1  0  0  0  0
 31  8  1  0  0  0  0
 14  9  1  0  0  0  0
 10  9  1  0  0  0  0
 11 10  1  0  0  0  0
 32 11  1  0  0  0  0
 33 11  1  0  0  0  0
 12 11  1  0  0  0  0
 34 12  1  0  0  0  0
 35 12  1  0  0  0  0
 13 12  1  0  0  0  0
 36 13  1  0  0  0  0
 37 13  1  0  0  0  0
 38 14  1  0  0  0  0
 39 14  1  0  0  0  0
 16 15  2  0  0  0  0
 17 15  1  0  0  0  0
 18 17  1  0  0  0  0
 40 18  1  0  0  0  0
 41 18  1  0  0  0  0
 19 18  1  0  0  0  0
 42 19  1  0  0  0  0
 43 19  1  0  0  0  0
 20 19  1  0  0  0  0
 44 20  1  0  0  0  0
 45 20  1  0  0  0  0
 21 17  1  0  0  0  0
 46 21  1  0  0  0  0
 47 21  1  0  0  0  0
 22 20  1  0  0  0  0
 23 22  1  0  0  0  0
 48 22  1  0  0  0  0
 24 23  2  0  0  0  0
 25 23  1  0  0  0  0
 49 25  1  0  0  0  0
 50 25  1  0  0  0  0
  7  6  1  0  0  0  0
 14 13  1  0  0  0  0
 22 21  1  0  0  0  0
M  END
>  <FittedScore>
-32.58

$$$$
