A71EV2A-x4940a_lowest-energy
  FITTED

 41 42     0  0  0  0  0  0  0999 V2000
    9.9517   16.9035   19.2819 O    0  0  0  0  0  0  0  0  0  0  0  0
   10.4795   15.9119   19.7445 C    0  0  0  0  0  0  0  0  0  0  0  0
   10.8121   14.9289   18.8850 N    0  0  0  0  0  0  0  0  0  0  0  0
   10.4018   15.5423   21.2418 C    0  0  0  0  0  0  0  0  0  0  0  0
   11.3264   14.4936   21.5926 O    0  0  0  0  0  0  0  0  0  0  0  0
   10.8146   16.7472   22.1433 C    0  0  0  0  0  0  0  0  0  0  0  0
   10.5538   16.4339   23.6428 C    0  0  0  0  0  0  0  0  0  0  0  0
    9.0948   15.9465   23.8671 C    0  0  0  0  0  0  0  0  0  0  0  0
    8.9454   15.0503   21.5650 C    0  0  0  0  0  0  0  0  0  0  0  0
    8.6634   14.7851   23.0152 N    0  0  0  0  0  0  0  0  0  0  0  0
    7.8980   13.7215   23.4468 C    0  0  0  0  0  0  0  0  0  0  0  0
    7.2214   13.0651   22.6696 O    0  0  0  0  0  0  0  0  0  0  0  0
    7.9128   13.3745   24.9450 C    0  0  0  0  0  0  0  0  0  0  0  0
    7.2721   12.0335   25.3420 C    0  0  0  0  0  0  0  0  0  0  0  0
    7.8257   10.7773   24.9792 C    0  0  0  0  0  0  0  0  0  0  0  0
    9.3503   10.6852   24.0390 S    0  0  0  0  0  0  0  0  0  0  0  0
    9.5400    8.9998   23.3820 C    0  0  0  0  0  0  0  0  0  0  0  0
    6.1084   12.0735   26.1399 C    0  0  0  0  0  0  0  0  0  0  0  0
    5.4909   10.8922   26.5653 C    0  0  0  0  0  0  0  0  0  0  0  0
    6.0195    9.6589   26.1859 C    0  0  0  0  0  0  0  0  0  0  0  0
    7.1732    9.6002   25.3955 C    0  0  0  0  0  0  0  0  0  0  0  0
   10.9209   13.9759   19.2243 H    0  0  0  0  0  0  0  0  0  0  0  0
   10.8914   15.1341   17.8947 H    0  0  0  0  0  0  0  0  0  0  0  0
   11.0923   13.7217   21.0575 H    0  0  0  0  0  0  0  0  0  0  0  0
   11.8693   17.0026   21.9928 H    0  0  0  0  0  0  0  0  0  0  0  0
   10.2512   17.6496   21.8775 H    0  0  0  0  0  0  0  0  0  0  0  0
   11.2583   15.6777   24.0056 H    0  0  0  0  0  0  0  0  0  0  0  0
   10.7319   17.3358   24.2346 H    0  0  0  0  0  0  0  0  0  0  0  0
    9.0063   15.7536   24.9349 H    0  0  0  0  0  0  0  0  0  0  0  0
    8.4126   16.7808   23.6691 H    0  0  0  0  0  0  0  0  0  0  0  0
    8.7551   14.1622   20.9561 H    0  0  0  0  0  0  0  0  0  0  0  0
    8.2149   15.7885   21.2197 H    0  0  0  0  0  0  0  0  0  0  0  0
    8.9438   13.3675   25.3112 H    0  0  0  0  0  0  0  0  0  0  0  0
    7.4156   14.1862   25.4820 H    0  0  0  0  0  0  0  0  0  0  0  0
   10.4033    8.9818   22.7166 H    0  0  0  0  0  0  0  0  0  0  0  0
    9.7146    8.2905   24.1924 H    0  0  0  0  0  0  0  0  0  0  0  0
    8.6535    8.7158   22.8110 H    0  0  0  0  0  0  0  0  0  0  0  0
    5.6714   13.0230   26.4392 H    0  0  0  0  0  0  0  0  0  0  0  0
    4.5977   10.9355   27.1827 H    0  0  0  0  0  0  0  0  0  0  0  0
    5.5407    8.7368   26.5077 H    0  0  0  0  0  0  0  0  0  0  0  0
    7.5518    8.6200   25.1381 H    0  0  0  0  0  0  0  0  0  0  0  0
 10 11  1  0  0  0  0
  8 10  1  0  0  0  0
  7  8  1  0  0  0  0
  6  7  1  0  0  0  0
  4  6  1  0  0  0  0
  5  4  1  0  0  0  0
  2  4  1  0  0  0  0
  1  2  2  0  0  0  0
  3  2  1  0  0  0  0
 22  3  1  0  0  0  0
 23  3  1  0  0  0  0
 24  5  1  0  0  0  0
 25  6  1  0  0  0  0
 26  6  1  0  0  0  0
 27  7  1  0  0  0  0
 28  7  1  0  0  0  0
 29  8  1  0  0  0  0
 30  8  1  0  0  0  0
  9  4  1  0  0  0  0
 31  9  1  0  0  0  0
 32  9  1  0  0  0  0
 12 11  2  0  0  0  0
 13 11  1  0  0  0  0
 33 13  1  0  0  0  0
 34 13  1  0  0  0  0
 14 13  1  0  0  0  0
 15 14  1  0  0  0  0
 21 15  2  0  0  0  0
 16 15  1  0  0  0  0
 17 16  1  0  0  0  0
 35 17  1  0  0  0  0
 36 17  1  0  0  0  0
 37 17  1  0  0  0  0
 18 14  2  0  0  0  0
 38 18  1  0  0  0  0
 19 18  1  0  0  0  0
 39 19  1  0  0  0  0
 20 19  2  0  0  0  0
 40 20  1  0  0  0  0
 41 21  1  0  0  0  0
 10  9  1  0  0  0  0
 21 20  1  0  0  0  0
M  END
>  <FittedScore>
-34.25

$$$$
