A71EV2A-x4940a_best-RMSD
  FITTED

 41 42     0  0  0  0  0  0  0999 V2000
   10.0050   16.8569   19.3001 O    0  0  0  0  0  0  0  0  0  0  0  0
   10.5483   15.8610   19.7518 C    0  0  0  0  0  0  0  0  0  0  0  0
   10.9227   14.9123   18.8713 N    0  0  0  0  0  0  0  0  0  0  0  0
   10.4940   15.4917   21.2568 C    0  0  0  0  0  0  0  0  0  0  0  0
   11.3872   14.4024   21.5836 O    0  0  0  0  0  0  0  0  0  0  0  0
   10.9577   16.6788   22.1633 C    0  0  0  0  0  0  0  0  0  0  0  0
   10.7263   16.3788   23.6724 C    0  0  0  0  0  0  0  0  0  0  0  0
    9.2605   15.9290   23.9329 C    0  0  0  0  0  0  0  0  0  0  0  0
    9.0305   15.0533   21.6286 C    0  0  0  0  0  0  0  0  0  0  0  0
    8.7965   14.7721   23.0870 N    0  0  0  0  0  0  0  0  0  0  0  0
    8.0742   13.6848   23.5424 C    0  0  0  0  0  0  0  0  0  0  0  0
    7.3481   13.0561   22.7865 O    0  0  0  0  0  0  0  0  0  0  0  0
    8.2448   13.2417   25.0091 C    0  0  0  0  0  0  0  0  0  0  0  0
    7.5027   11.9529   25.4091 C    0  0  0  0  0  0  0  0  0  0  0  0
    7.8780   10.6668   24.9332 C    0  0  0  0  0  0  0  0  0  0  0  0
    9.3194   10.4729   23.8824 S    0  0  0  0  0  0  0  0  0  0  0  0
    9.4842    8.7229   23.4253 C    0  0  0  0  0  0  0  0  0  0  0  0
    6.4111   12.0670   26.2994 C    0  0  0  0  0  0  0  0  0  0  0  0
    5.6848   10.9386   26.7003 C    0  0  0  0  0  0  0  0  0  0  0  0
    6.0260    9.6845   26.1956 C    0  0  0  0  0  0  0  0  0  0  0  0
    7.1051    9.5527   25.3137 C    0  0  0  0  0  0  0  0  0  0  0  0
   11.1231   13.9632   19.1866 H    0  0  0  0  0  0  0  0  0  0  0  0
   10.9069   15.1279   17.8780 H    0  0  0  0  0  0  0  0  0  0  0  0
   11.0109   13.5877   21.2265 H    0  0  0  0  0  0  0  0  0  0  0  0
   12.0134   16.9053   21.9846 H    0  0  0  0  0  0  0  0  0  0  0  0
   10.4043   17.5859   21.9031 H    0  0  0  0  0  0  0  0  0  0  0  0
   11.4174   15.6088   24.0281 H    0  0  0  0  0  0  0  0  0  0  0  0
   10.9428   17.2821   24.2512 H    0  0  0  0  0  0  0  0  0  0  0  0
    9.1746   15.7534   25.0023 H    0  0  0  0  0  0  0  0  0  0  0  0
    8.5999   16.7800   23.7404 H    0  0  0  0  0  0  0  0  0  0  0  0
    8.7740   14.1845   21.0136 H    0  0  0  0  0  0  0  0  0  0  0  0
    8.3243   15.8351   21.3236 H    0  0  0  0  0  0  0  0  0  0  0  0
    9.3073   13.1162   25.2338 H    0  0  0  0  0  0  0  0  0  0  0  0
    7.9043   14.0466   25.6601 H    0  0  0  0  0  0  0  0  0  0  0  0
    8.5867    8.3959   22.8993 H    0  0  0  0  0  0  0  0  0  0  0  0
    9.6470    8.1158   24.3195 H    0  0  0  0  0  0  0  0  0  0  0  0
   10.3397    8.6104   22.7562 H    0  0  0  0  0  0  0  0  0  0  0  0
    6.1146   13.0344   26.7000 H    0  0  0  0  0  0  0  0  0  0  0  0
    4.8573   11.0391   27.4009 H    0  0  0  0  0  0  0  0  0  0  0  0
    5.4544    8.8059   26.4891 H    0  0  0  0  0  0  0  0  0  0  0  0
    7.3193    8.5562   24.9506 H    0  0  0  0  0  0  0  0  0  0  0  0
 10 11  1  0  0  0  0
  8 10  1  0  0  0  0
  7  8  1  0  0  0  0
  6  7  1  0  0  0  0
  4  6  1  0  0  0  0
  5  4  1  0  0  0  0
  2  4  1  0  0  0  0
  1  2  2  0  0  0  0
  3  2  1  0  0  0  0
 22  3  1  0  0  0  0
 23  3  1  0  0  0  0
 24  5  1  0  0  0  0
 25  6  1  0  0  0  0
 26  6  1  0  0  0  0
 27  7  1  0  0  0  0
 28  7  1  0  0  0  0
 29  8  1  0  0  0  0
 30  8  1  0  0  0  0
  9  4  1  0  0  0  0
 31  9  1  0  0  0  0
 32  9  1  0  0  0  0
 12 11  2  0  0  0  0
 13 11  1  0  0  0  0
 33 13  1  0  0  0  0
 34 13  1  0  0  0  0
 14 13  1  0  0  0  0
 15 14  1  0  0  0  0
 21 15  2  0  0  0  0
 16 15  1  0  0  0  0
 17 16  1  0  0  0  0
 35 17  1  0  0  0  0
 36 17  1  0  0  0  0
 37 17  1  0  0  0  0
 18 14  2  0  0  0  0
 38 18  1  0  0  0  0
 19 18  1  0  0  0  0
 39 19  1  0  0  0  0
 20 19  2  0  0  0  0
 40 20  1  0  0  0  0
 41 21  1  0  0  0  0
 10  9  1  0  0  0  0
 21 20  1  0  0  0  0
M  END
>  <FittedScore>
-33.76

$$$$
