A71EV2A-x5210b_best-RMSD
  FITTED

 40 42     0  0  0  0  0  0  0999 V2000
   10.6670   15.3957   25.5541 O    0  0  0  0  0  0  0  0  0  0  0  0
   10.5404   15.4338   24.3431 C    0  0  0  0  0  0  0  0  0  0  0  0
   11.7782   15.7986   23.5156 C    0  0  0  0  0  0  0  0  0  0  0  0
   11.4894   16.2294   22.0576 C    0  0  0  0  0  0  0  0  0  0  0  0
    9.3882   15.0153   23.7038 N    0  0  0  0  0  0  0  0  0  0  0  0
    9.2052   15.0900   22.2146 C    0  0  0  0  0  0  0  0  0  0  0  0
   10.5157   15.2317   21.3830 C    0  0  0  0  0  0  0  0  0  0  0  0
   10.2456   15.6343   19.9259 C    0  0  0  0  0  0  0  0  0  0  0  0
    9.6665   16.6583   19.6055 O    0  0  0  0  0  0  0  0  0  0  0  0
   10.5919   14.7310   18.9840 N    0  0  0  0  0  0  0  0  0  0  0  0
    8.2564   14.3346   24.4446 C    0  0  0  0  0  0  0  0  0  0  0  0
    8.3249   12.7888   24.4448 C    0  0  0  0  0  0  0  0  0  0  0  0
    9.3856   12.0480   23.8702 C    0  0  0  0  0  0  0  0  0  0  0  0
    9.3628   10.6492   23.8766 C    0  0  0  0  0  0  0  0  0  0  0  0
    8.3029    9.9703   24.4834 C    0  0  0  0  0  0  0  0  0  0  0  0
    7.2672   10.6832   25.0952 C    0  0  0  0  0  0  0  0  0  0  0  0
    7.2548   12.0869   25.0568 C    0  0  0  0  0  0  0  0  0  0  0  0
    6.0783   12.8507   25.6807 C    0  0  0  0  0  0  0  0  0  0  0  0
    5.7147   14.2210   25.0217 C    0  0  0  0  0  0  0  0  0  0  0  0
    6.8166   14.8498   24.1113 C    0  0  0  0  0  0  0  0  0  0  0  0
   12.3136   16.6105   24.0168 H    0  0  0  0  0  0  0  0  0  0  0  0
   12.4544   14.9375   23.5079 H    0  0  0  0  0  0  0  0  0  0  0  0
   11.0606   17.2353   22.0606 H    0  0  0  0  0  0  0  0  0  0  0  0
   12.4296   16.2790   21.5006 H    0  0  0  0  0  0  0  0  0  0  0  0
    8.5542   15.9431   22.0097 H    0  0  0  0  0  0  0  0  0  0  0  0
    8.6794   14.2026   21.8415 H    0  0  0  0  0  0  0  0  0  0  0  0
   10.9998   14.2490   21.4057 H    0  0  0  0  0  0  0  0  0  0  0  0
   10.8725   13.7895   19.2539 H    0  0  0  0  0  0  0  0  0  0  0  0
   10.4488   14.9364   18.0009 H    0  0  0  0  0  0  0  0  0  0  0  0
    8.3527   14.6077   25.5000 H    0  0  0  0  0  0  0  0  0  0  0  0
   10.2385   12.5334   23.4076 H    0  0  0  0  0  0  0  0  0  0  0  0
   10.1737   10.0919   23.4155 H    0  0  0  0  0  0  0  0  0  0  0  0
    8.2852    8.8814   24.4872 H    0  0  0  0  0  0  0  0  0  0  0  0
    6.4593   10.1360   25.5749 H    0  0  0  0  0  0  0  0  0  0  0  0
    5.1829   12.2229   25.6728 H    0  0  0  0  0  0  0  0  0  0  0  0
    6.3138   13.0211   26.7349 H    0  0  0  0  0  0  0  0  0  0  0  0
    4.8005   14.0989   24.4352 H    0  0  0  0  0  0  0  0  0  0  0  0
    5.4694   14.9309   25.8153 H    0  0  0  0  0  0  0  0  0  0  0  0
    6.5603   14.6241   23.0730 H    0  0  0  0  0  0  0  0  0  0  0  0
    6.7902   15.9390   24.2118 H    0  0  0  0  0  0  0  0  0  0  0  0
  2  5  1  0  0  0  0
  3  2  1  0  0  0  0
 21  3  1  0  0  0  0
  1  2  2  0  0  0  0
 22  3  1  0  0  0  0
  4  3  1  0  0  0  0
 23  4  1  0  0  0  0
 24  4  1  0  0  0  0
  6  5  1  0  0  0  0
 25  6  1  0  0  0  0
 26  6  1  0  0  0  0
  7  4  1  0  0  0  0
  8  7  1  0  0  0  0
 27  7  1  0  0  0  0
  9  8  2  0  0  0  0
 10  8  1  0  0  0  0
 28 10  1  0  0  0  0
 29 10  1  0  0  0  0
 11  5  1  0  0  0  0
 20 11  1  0  0  0  0
 30 11  1  0  0  0  0
 12 11  1  0  0  0  0
 13 12  1  0  0  0  0
 31 13  1  0  0  0  0
 14 13  2  0  0  0  0
 32 14  1  0  0  0  0
 15 14  1  0  0  0  0
 33 15  1  0  0  0  0
 16 15  2  0  0  0  0
 34 16  1  0  0  0  0
 17 16  1  0  0  0  0
 18 17  1  0  0  0  0
 35 18  1  0  0  0  0
 36 18  1  0  0  0  0
 19 18  1  0  0  0  0
 37 19  1  0  0  0  0
 38 19  1  0  0  0  0
 39 20  1  0  0  0  0
 40 20  1  0  0  0  0
  7  6  1  0  0  0  0
 17 12  2  0  0  0  0
 20 19  1  0  0  0  0
M  END
>  <FittedScore>
-30.96

$$$$
