A71EV2A-x4028a_best-RMSD
  FITTED

 43 44     0  0  0  0  0  0  0999 V2000
    9.7369   16.7890   19.0915 O    0  0  0  0  0  0  0  0  0  0  0  0
   10.2148   15.7455   19.4917 C    0  0  0  0  0  0  0  0  0  0  0  0
   10.6665   14.8420   18.6132 N    0  0  0  0  0  0  0  0  0  0  0  0
   10.2385   15.2959   20.9453 C    0  0  0  0  0  0  0  0  0  0  0  0
   11.2058   16.1786   21.7787 C    0  0  0  0  0  0  0  0  0  0  0  0
   11.2031   15.7261   23.2602 C    0  0  0  0  0  0  0  0  0  0  0  0
    9.7615   15.6341   23.8285 C    0  0  0  0  0  0  0  0  0  0  0  0
    8.8187   15.1977   21.5911 C    0  0  0  0  0  0  0  0  0  0  0  0
    8.8601   14.7339   23.0212 N    0  0  0  0  0  0  0  0  0  0  0  0
    8.1422   13.6447   23.4931 C    0  0  0  0  0  0  0  0  0  0  0  0
    7.3225   13.0588   22.8038 O    0  0  0  0  0  0  0  0  0  0  0  0
    8.4246   13.1359   24.9206 C    0  0  0  0  0  0  0  0  0  0  0  0
    7.6240   11.9025   25.3595 C    0  0  0  0  0  0  0  0  0  0  0  0
    7.9150   10.6109   24.8633 C    0  0  0  0  0  0  0  0  0  0  0  0
    8.9664   10.4549   23.9618 O    0  0  0  0  0  0  0  0  0  0  0  0
    9.4530    9.1992   23.4221 C    0  0  0  0  0  0  0  0  0  0  0  0
    6.5856   12.0719   26.2988 C    0  0  0  0  0  0  0  0  0  0  0  0
    5.8341   10.9765   26.7678 C    0  0  0  0  0  0  0  0  0  0  0  0
    4.7222   11.2025   27.8076 C    0  0  0  0  0  0  0  0  0  0  0  0
    3.6553   11.7957   27.2404 F    0  0  0  0  0  0  0  0  0  0  0  0
    5.1418   12.0020   28.8076 F    0  0  0  0  0  0  0  0  0  0  0  0
    4.2698   10.0729   28.3813 F    0  0  0  0  0  0  0  0  0  0  0  0
    6.1039    9.7056   26.2294 C    0  0  0  0  0  0  0  0  0  0  0  0
    7.1268    9.5247   25.2908 C    0  0  0  0  0  0  0  0  0  0  0  0
   10.8953   13.8893   18.8929 H    0  0  0  0  0  0  0  0  0  0  0  0
   10.6955   15.0826   17.6333 H    0  0  0  0  0  0  0  0  0  0  0  0
   10.6404   14.2758   20.9865 H    0  0  0  0  0  0  0  0  0  0  0  0
   12.2186   16.0907   21.3748 H    0  0  0  0  0  0  0  0  0  0  0  0
   10.9222   17.2343   21.7077 H    0  0  0  0  0  0  0  0  0  0  0  0
   11.6961   14.7531   23.3507 H    0  0  0  0  0  0  0  0  0  0  0  0
   11.7891   16.4308   23.8550 H    0  0  0  0  0  0  0  0  0  0  0  0
    9.8510   15.3429   24.8734 H    0  0  0  0  0  0  0  0  0  0  0  0
    9.3226   16.6364   23.8570 H    0  0  0  0  0  0  0  0  0  0  0  0
    8.2082   14.5408   20.9644 H    0  0  0  0  0  0  0  0  0  0  0  0
    8.3216   16.1718   21.5520 H    0  0  0  0  0  0  0  0  0  0  0  0
    9.4892   12.9015   25.0221 H    0  0  0  0  0  0  0  0  0  0  0  0
    8.2265   13.9451   25.6282 H    0  0  0  0  0  0  0  0  0  0  0  0
   10.2787    9.4235   22.7424 H    0  0  0  0  0  0  0  0  0  0  0  0
    8.6726    8.6880   22.8509 H    0  0  0  0  0  0  0  0  0  0  0  0
    9.8165    8.5414   24.2166 H    0  0  0  0  0  0  0  0  0  0  0  0
    6.3550   13.0676   26.6745 H    0  0  0  0  0  0  0  0  0  0  0  0
    5.5077    8.8399   26.5159 H    0  0  0  0  0  0  0  0  0  0  0  0
    7.2807    8.5274   24.8924 H    0  0  0  0  0  0  0  0  0  0  0  0
  9 10  1  0  0  0  0
  7  9  1  0  0  0  0
  6  7  1  0  0  0  0
  5  6  1  0  0  0  0
  4  5  1  0  0  0  0
  2  4  1  0  0  0  0
  1  2  2  0  0  0  0
  3  2  1  0  0  0  0
 25  3  1  0  0  0  0
 26  3  1  0  0  0  0
 27  4  1  0  0  0  0
 28  5  1  0  0  0  0
 29  5  1  0  0  0  0
 30  6  1  0  0  0  0
 31  6  1  0  0  0  0
 32  7  1  0  0  0  0
 33  7  1  0  0  0  0
  8  4  1  0  0  0  0
 34  8  1  0  0  0  0
 35  8  1  0  0  0  0
 11 10  2  0  0  0  0
 12 10  1  0  0  0  0
 36 12  1  0  0  0  0
 37 12  1  0  0  0  0
 13 12  1  0  0  0  0
 14 13  1  0  0  0  0
 24 14  2  0  0  0  0
 15 14  1  0  0  0  0
 16 15  1  0  0  0  0
 38 16  1  0  0  0  0
 39 16  1  0  0  0  0
 40 16  1  0  0  0  0
 17 13  2  0  0  0  0
 41 17  1  0  0  0  0
 18 17  1  0  0  0  0
 19 18  1  0  0  0  0
 20 19  1  0  0  0  0
 21 19  1  0  0  0  0
 22 19  1  0  0  0  0
 23 18  2  0  0  0  0
 42 23  1  0  0  0  0
 43 24  1  0  0  0  0
  9  8  1  0  0  0  0
 24 23  1  0  0  0  0
M  END
>  <FittedScore>
-31.08

$$$$
