A71EV2A-x3616a_best-RMSD
  FITTED

 41 42     0  0  0  0  0  0  0999 V2000
   10.0214   16.9155   19.1510 O    0  0  0  0  0  0  0  0  0  0  0  0
   10.4141   15.8571   19.6039 C    0  0  0  0  0  0  0  0  0  0  0  0
   10.8368   14.8967   18.7517 N    0  0  0  0  0  0  0  0  0  0  0  0
   10.2592   15.4011   21.0638 C    0  0  0  0  0  0  0  0  0  0  0  0
   11.6375   15.2926   21.7845 C    0  0  0  0  0  0  0  0  0  0  0  0
   11.4921   14.8216   23.2600 C    0  0  0  0  0  0  0  0  0  0  0  0
   10.4365   15.6557   24.0346 C    0  0  0  0  0  0  0  0  0  0  0  0
    9.3172   16.2927   21.9263 C    0  0  0  0  0  0  0  0  0  0  0  0
    9.1310   15.6869   23.2821 N    0  0  0  0  0  0  0  0  0  0  0  0
    8.0103   14.9456   23.5745 C    0  0  0  0  0  0  0  0  0  0  0  0
    7.1729   14.6720   22.7309 O    0  0  0  0  0  0  0  0  0  0  0  0
    7.9857   14.3741   24.7984 N    0  0  0  0  0  0  0  0  0  0  0  0
    7.1037   13.3092   25.2598 C    0  0  0  0  0  0  0  0  0  0  0  0
    7.5220   11.8656   24.8923 C    0  0  0  0  0  0  0  0  0  0  0  0
    6.7856   10.7743   25.4287 C    0  0  0  0  0  0  0  0  0  0  0  0
    5.6576   10.9871   26.4471 C    0  0  0  0  0  0  0  0  0  0  0  0
    8.6241   11.5829   24.0436 C    0  0  0  0  0  0  0  0  0  0  0  0
    8.9641   10.2587   23.7271 C    0  0  0  0  0  0  0  0  0  0  0  0
    8.1970    9.1957   24.2088 C    0  0  0  0  0  0  0  0  0  0  0  0
    7.1116    9.4603   25.0510 C    0  0  0  0  0  0  0  0  0  0  0  0
   10.8844   15.0827   17.7511 H    0  0  0  0  0  0  0  0  0  0  0  0
   10.9963   13.9453   19.0961 H    0  0  0  0  0  0  0  0  0  0  0  0
    9.8059   14.4011   21.0385 H    0  0  0  0  0  0  0  0  0  0  0  0
   12.2822   14.5829   21.2542 H    0  0  0  0  0  0  0  0  0  0  0  0
   12.1500   16.2588   21.7630 H    0  0  0  0  0  0  0  0  0  0  0  0
   11.2043   13.7671   23.2713 H    0  0  0  0  0  0  0  0  0  0  0  0
   12.4559   14.8940   23.7695 H    0  0  0  0  0  0  0  0  0  0  0  0
   10.3740   15.2439   25.0472 H    0  0  0  0  0  0  0  0  0  0  0  0
   10.8000   16.6755   24.1785 H    0  0  0  0  0  0  0  0  0  0  0  0
    8.3697   16.4625   21.3966 H    0  0  0  0  0  0  0  0  0  0  0  0
    9.7383   17.2994   22.0300 H    0  0  0  0  0  0  0  0  0  0  0  0
    8.6935   14.6325   25.4832 H    0  0  0  0  0  0  0  0  0  0  0  0
    7.1101   13.4048   26.3484 H    0  0  0  0  0  0  0  0  0  0  0  0
    6.0856   13.5143   24.9098 H    0  0  0  0  0  0  0  0  0  0  0  0
    4.8571   11.6093   26.0370 H    0  0  0  0  0  0  0  0  0  0  0  0
    6.0541   11.4935   27.3294 H    0  0  0  0  0  0  0  0  0  0  0  0
    5.2002   10.0581   26.7898 H    0  0  0  0  0  0  0  0  0  0  0  0
    9.2369   12.3720   23.6102 H    0  0  0  0  0  0  0  0  0  0  0  0
    9.8274   10.0596   23.1013 H    0  0  0  0  0  0  0  0  0  0  0  0
    8.4523    8.1679   23.9507 H    0  0  0  0  0  0  0  0  0  0  0  0
    6.5373    8.6248   25.4330 H    0  0  0  0  0  0  0  0  0  0  0  0
  9 10  1  0  0  0  0
  7  9  1  0  0  0  0
  6  7  1  0  0  0  0
  5  6  1  0  0  0  0
  4  5  1  0  0  0  0
  2  4  1  0  0  0  0
  1  2  2  0  0  0  0
  3  2  1  0  0  0  0
 21  3  1  0  0  0  0
 22  3  1  0  0  0  0
 23  4  1  0  0  0  0
 24  5  1  0  0  0  0
 25  5  1  0  0  0  0
 26  6  1  0  0  0  0
 27  6  1  0  0  0  0
 28  7  1  0  0  0  0
 29  7  1  0  0  0  0
  8  4  1  0  0  0  0
 30  8  1  0  0  0  0
 31  8  1  0  0  0  0
 11 10  2  0  0  0  0
 12 10  1  0  0  0  0
 32 12  1  0  0  0  0
 13 12  1  0  0  0  0
 33 13  1  0  0  0  0
 34 13  1  0  0  0  0
 14 13  1  0  0  0  0
 15 14  1  0  0  0  0
 20 15  2  0  0  0  0
 16 15  1  0  0  0  0
 35 16  1  0  0  0  0
 36 16  1  0  0  0  0
 37 16  1  0  0  0  0
 17 14  2  0  0  0  0
 38 17  1  0  0  0  0
 18 17  1  0  0  0  0
 39 18  1  0  0  0  0
 19 18  2  0  0  0  0
 40 19  1  0  0  0  0
 41 20  1  0  0  0  0
  9  8  1  0  0  0  0
 20 19  1  0  0  0  0
M  END
>  <FittedScore>
-38.09

$$$$
