A71EV2A-x5289a_lowest-energy
  FITTED

 49 50     0  0  0  0  0  0  0999 V2000
    9.6798   16.7648   19.2853 O    0  0  0  0  0  0  0  0  0  0  0  0
   10.1087   15.7038   19.7002 C    0  0  0  0  0  0  0  0  0  0  0  0
   10.6462   14.8265   18.8284 N    0  0  0  0  0  0  0  0  0  0  0  0
   10.0792   15.2597   21.1696 C    0  0  0  0  0  0  0  0  0  0  0  0
   11.0150   16.1406   22.0479 C    0  0  0  0  0  0  0  0  0  0  0  0
   10.9622   15.6983   23.5372 C    0  0  0  0  0  0  0  0  0  0  0  0
    9.5049   15.5591   24.0748 C    0  0  0  0  0  0  0  0  0  0  0  0
    8.6427   15.2164   21.7869 C    0  0  0  0  0  0  0  0  0  0  0  0
    8.6235   14.7038   23.2074 N    0  0  0  0  0  0  0  0  0  0  0  0
    7.8675   13.6159   23.6034 C    0  0  0  0  0  0  0  0  0  0  0  0
    7.1643   13.0100   22.8153 O    0  0  0  0  0  0  0  0  0  0  0  0
    7.8709   13.2445   24.9237 N    0  0  0  0  0  0  0  0  0  0  0  0
    7.2335   12.0612   25.4572 C    0  0  0  0  0  0  0  0  0  0  0  0
    7.6295   10.7681   25.0141 C    0  0  0  0  0  0  0  0  0  0  0  0
    8.7437   10.6459   24.1733 O    0  0  0  0  0  0  0  0  0  0  0  0
    9.3126    9.3956   23.7055 C    0  0  0  0  0  0  0  0  0  0  0  0
    6.1598   12.1808   26.3796 C    0  0  0  0  0  0  0  0  0  0  0  0
    5.5992   13.7353   27.0343 S    0  0  0  0  0  0  0  0  0  0  0  0
    4.5359   14.3776   25.6919 C    0  0  0  0  0  0  0  0  0  0  0  0
    4.3280   15.9001   25.8497 C    0  0  0  0  0  0  0  0  0  0  0  0
    3.1885   13.6190   25.5991 C    0  0  0  0  0  0  0  0  0  0  0  0
    5.4602   11.0410   26.8029 C    0  0  0  0  0  0  0  0  0  0  0  0
    5.7973    9.7845   26.3029 C    0  0  0  0  0  0  0  0  0  0  0  0
    6.8718    9.6446   25.4206 C    0  0  0  0  0  0  0  0  0  0  0  0
   10.6150   15.0465   17.8398 H    0  0  0  0  0  0  0  0  0  0  0  0
   10.9237   13.8914   19.1220 H    0  0  0  0  0  0  0  0  0  0  0  0
   10.4617   14.2336   21.2190 H    0  0  0  0  0  0  0  0  0  0  0  0
   12.0426   16.0595   21.6841 H    0  0  0  0  0  0  0  0  0  0  0  0
   10.7313   17.1960   21.9660 H    0  0  0  0  0  0  0  0  0  0  0  0
   11.4797   14.7406   23.6486 H    0  0  0  0  0  0  0  0  0  0  0  0
   11.5120   16.4196   24.1453 H    0  0  0  0  0  0  0  0  0  0  0  0
    9.5704   15.1869   25.0980 H    0  0  0  0  0  0  0  0  0  0  0  0
    9.0518   16.5532   24.1643 H    0  0  0  0  0  0  0  0  0  0  0  0
    8.0057   14.6325   21.1175 H    0  0  0  0  0  0  0  0  0  0  0  0
    8.2032   16.2178   21.7713 H    0  0  0  0  0  0  0  0  0  0  0  0
    8.2321   13.8796   25.6287 H    0  0  0  0  0  0  0  0  0  0  0  0
   10.1617    9.6264   23.0565 H    0  0  0  0  0  0  0  0  0  0  0  0
    8.5772    8.8290   23.1327 H    0  0  0  0  0  0  0  0  0  0  0  0
    9.6724    8.7981   24.5471 H    0  0  0  0  0  0  0  0  0  0  0  0
    5.0721   14.2193   24.7522 H    0  0  0  0  0  0  0  0  0  0  0  0
    5.2904   16.4189   25.8397 H    0  0  0  0  0  0  0  0  0  0  0  0
    3.8246   16.1299   26.7910 H    0  0  0  0  0  0  0  0  0  0  0  0
    3.7226   16.3073   25.0347 H    0  0  0  0  0  0  0  0  0  0  0  0
    2.5372   14.0566   24.8375 H    0  0  0  0  0  0  0  0  0  0  0  0
    2.6549   13.6455   26.5508 H    0  0  0  0  0  0  0  0  0  0  0  0
    3.3497   12.5738   25.3232 H    0  0  0  0  0  0  0  0  0  0  0  0
    4.6368   11.1322   27.5038 H    0  0  0  0  0  0  0  0  0  0  0  0
    5.2240    8.9070   26.6072 H    0  0  0  0  0  0  0  0  0  0  0  0
    7.0970    8.6467   25.0609 H    0  0  0  0  0  0  0  0  0  0  0  0
 10 12  1  0  0  0  0
  9 10  1  0  0  0  0
  7  9  1  0  0  0  0
  6  7  1  0  0  0  0
  5  6  1  0  0  0  0
  4  5  1  0  0  0  0
  2  4  1  0  0  0  0
  1  2  2  0  0  0  0
  3  2  1  0  0  0  0
 25  3  1  0  0  0  0
 26  3  1  0  0  0  0
 27  4  1  0  0  0  0
 28  5  1  0  0  0  0
 29  5  1  0  0  0  0
 30  6  1  0  0  0  0
 31  6  1  0  0  0  0
 32  7  1  0  0  0  0
 33  7  1  0  0  0  0
  8  4  1  0  0  0  0
 34  8  1  0  0  0  0
 35  8  1  0  0  0  0
 11 10  2  0  0  0  0
 36 12  1  0  0  0  0
 13 12  1  0  0  0  0
 14 13  1  0  0  0  0
 24 14  2  0  0  0  0
 15 14  1  0  0  0  0
 16 15  1  0  0  0  0
 37 16  1  0  0  0  0
 38 16  1  0  0  0  0
 39 16  1  0  0  0  0
 17 13  2  0  0  0  0
 18 17  1  0  0  0  0
 19 18  1  0  0  0  0
 40 19  1  0  0  0  0
 20 19  1  0  0  0  0
 41 20  1  0  0  0  0
 42 20  1  0  0  0  0
 43 20  1  0  0  0  0
 21 19  1  0  0  0  0
 44 21  1  0  0  0  0
 45 21  1  0  0  0  0
 46 21  1  0  0  0  0
 22 17  1  0  0  0  0
 47 22  1  0  0  0  0
 23 22  2  0  0  0  0
 48 23  1  0  0  0  0
 49 24  1  0  0  0  0
  9  8  1  0  0  0  0
 24 23  1  0  0  0  0
M  END
>  <FittedScore>
-32.37

$$$$
