A71EV2A-x5289a_best-RMSD
  FITTED

 49 50     0  0  0  0  0  0  0999 V2000
    9.9729   16.8609   19.2427 O    0  0  0  0  0  0  0  0  0  0  0  0
   10.4056   15.7889   19.6175 C    0  0  0  0  0  0  0  0  0  0  0  0
   10.8035   14.8659   18.7246 N    0  0  0  0  0  0  0  0  0  0  0  0
   10.4120   15.3110   21.0628 C    0  0  0  0  0  0  0  0  0  0  0  0
   11.2291   16.2538   21.9816 C    0  0  0  0  0  0  0  0  0  0  0  0
   11.2363   15.6788   23.4216 C    0  0  0  0  0  0  0  0  0  0  0  0
    9.8041   15.3456   23.9434 C    0  0  0  0  0  0  0  0  0  0  0  0
    8.9726   15.0917   21.6170 C    0  0  0  0  0  0  0  0  0  0  0  0
    8.9494   14.5240   23.0107 N    0  0  0  0  0  0  0  0  0  0  0  0
    8.0509   13.5401   23.3769 C    0  0  0  0  0  0  0  0  0  0  0  0
    7.1922   13.1328   22.6132 O    0  0  0  0  0  0  0  0  0  0  0  0
    8.1925   12.9591   24.6040 N    0  0  0  0  0  0  0  0  0  0  0  0
    7.3891   11.8613   25.0888 C    0  0  0  0  0  0  0  0  0  0  0  0
    7.8706   10.5344   24.9587 C    0  0  0  0  0  0  0  0  0  0  0  0
    9.1504   10.2898   24.4630 O    0  0  0  0  0  0  0  0  0  0  0  0
    9.5000    9.1001   23.7061 C    0  0  0  0  0  0  0  0  0  0  0  0
    6.0860   12.0810   25.6164 C    0  0  0  0  0  0  0  0  0  0  0  0
    5.3850   13.7199   25.7688 S    0  0  0  0  0  0  0  0  0  0  0  0
    4.6060   13.8202   27.4332 C    0  0  0  0  0  0  0  0  0  0  0  0
    3.8496   15.1583   27.5991 C    0  0  0  0  0  0  0  0  0  0  0  0
    5.6066   13.5951   28.5941 C    0  0  0  0  0  0  0  0  0  0  0  0
    5.2963   10.9840   26.0008 C    0  0  0  0  0  0  0  0  0  0  0  0
    5.7748    9.6823   25.8708 C    0  0  0  0  0  0  0  0  0  0  0  0
    7.0440    9.4605   25.3388 C    0  0  0  0  0  0  0  0  0  0  0  0
   10.7706   15.0781   17.7350 H    0  0  0  0  0  0  0  0  0  0  0  0
   10.9858   13.9112   19.0352 H    0  0  0  0  0  0  0  0  0  0  0  0
   10.9126   14.3337   21.1049 H    0  0  0  0  0  0  0  0  0  0  0  0
   12.2546   16.3307   21.6075 H    0  0  0  0  0  0  0  0  0  0  0  0
   10.8123   17.2668   21.9720 H    0  0  0  0  0  0  0  0  0  0  0  0
   11.8483   14.7714   23.4422 H    0  0  0  0  0  0  0  0  0  0  0  0
   11.7167   16.3971   24.0901 H    0  0  0  0  0  0  0  0  0  0  0  0
    9.9274   14.8622   24.9138 H    0  0  0  0  0  0  0  0  0  0  0  0
    9.2710   16.2778   24.1467 H    0  0  0  0  0  0  0  0  0  0  0  0
    8.4621   14.4371   20.9055 H    0  0  0  0  0  0  0  0  0  0  0  0
    8.4082   16.0305   21.6075 H    0  0  0  0  0  0  0  0  0  0  0  0
    9.0457   13.1195   25.1356 H    0  0  0  0  0  0  0  0  0  0  0  0
    9.5182    8.2126   24.3407 H    0  0  0  0  0  0  0  0  0  0  0  0
   10.5027    9.2244   23.2901 H    0  0  0  0  0  0  0  0  0  0  0  0
    8.7860    8.9548   22.8922 H    0  0  0  0  0  0  0  0  0  0  0  0
    3.8509   13.0351   27.4900 H    0  0  0  0  0  0  0  0  0  0  0  0
    3.1125   15.2850   26.8016 H    0  0  0  0  0  0  0  0  0  0  0  0
    4.5340   16.0105   27.5685 H    0  0  0  0  0  0  0  0  0  0  0  0
    3.3107   15.1861   28.5493 H    0  0  0  0  0  0  0  0  0  0  0  0
    6.0351   12.5903   28.5487 H    0  0  0  0  0  0  0  0  0  0  0  0
    5.1158   13.6919   29.5694 H    0  0  0  0  0  0  0  0  0  0  0  0
    6.4288   14.3133   28.5476 H    0  0  0  0  0  0  0  0  0  0  0  0
    4.2880   11.1182   26.3764 H    0  0  0  0  0  0  0  0  0  0  0  0
    5.1539    8.8418   26.1713 H    0  0  0  0  0  0  0  0  0  0  0  0
    7.3838    8.4329   25.2549 H    0  0  0  0  0  0  0  0  0  0  0  0
 10 12  1  0  0  0  0
  9 10  1  0  0  0  0
  7  9  1  0  0  0  0
  6  7  1  0  0  0  0
  5  6  1  0  0  0  0
  4  5  1  0  0  0  0
  2  4  1  0  0  0  0
  1  2  2  0  0  0  0
  3  2  1  0  0  0  0
 25  3  1  0  0  0  0
 26  3  1  0  0  0  0
 27  4  1  0  0  0  0
 28  5  1  0  0  0  0
 29  5  1  0  0  0  0
 30  6  1  0  0  0  0
 31  6  1  0  0  0  0
 32  7  1  0  0  0  0
 33  7  1  0  0  0  0
  8  4  1  0  0  0  0
 34  8  1  0  0  0  0
 35  8  1  0  0  0  0
 11 10  2  0  0  0  0
 36 12  1  0  0  0  0
 13 12  1  0  0  0  0
 14 13  1  0  0  0  0
 24 14  2  0  0  0  0
 15 14  1  0  0  0  0
 16 15  1  0  0  0  0
 37 16  1  0  0  0  0
 38 16  1  0  0  0  0
 39 16  1  0  0  0  0
 17 13  2  0  0  0  0
 18 17  1  0  0  0  0
 19 18  1  0  0  0  0
 40 19  1  0  0  0  0
 20 19  1  0  0  0  0
 41 20  1  0  0  0  0
 42 20  1  0  0  0  0
 43 20  1  0  0  0  0
 21 19  1  0  0  0  0
 44 21  1  0  0  0  0
 45 21  1  0  0  0  0
 46 21  1  0  0  0  0
 22 17  1  0  0  0  0
 47 22  1  0  0  0  0
 23 22  2  0  0  0  0
 48 23  1  0  0  0  0
 49 24  1  0  0  0  0
  9  8  1  0  0  0  0
 24 23  1  0  0  0  0
M  END
>  <FittedScore>
-33.83

$$$$
