A71EV2A-x4708a_lowest-energy
  FITTED

 38 39     0  0  0  0  0  0  0999 V2000
    7.0365   12.9448   23.0691 O    0  0  0  0  0  0  0  0  0  0  0  0
    7.8408   13.3658   23.8787 C    0  0  0  0  0  0  0  0  0  0  0  0
    8.8661   14.1710   23.3996 N    0  0  0  0  0  0  0  0  0  0  0  0
   10.0393   14.6956   24.1821 C    0  0  0  0  0  0  0  0  0  0  0  0
   11.3947   14.7996   23.4341 C    0  0  0  0  0  0  0  0  0  0  0  0
   11.2686   15.4791   22.0551 C    0  0  0  0  0  0  0  0  0  0  0  0
    8.8075   14.8255   22.0354 C    0  0  0  0  0  0  0  0  0  0  0  0
   10.1491   14.7820   21.2494 C    0  0  0  0  0  0  0  0  0  0  0  0
   10.0815   15.3199   19.8190 C    0  0  0  0  0  0  0  0  0  0  0  0
    9.3564   16.2195   19.4418 O    0  0  0  0  0  0  0  0  0  0  0  0
   10.7768   14.6103   18.9172 N    0  0  0  0  0  0  0  0  0  0  0  0
    7.4677   13.2106   25.4027 C    0  0  0  0  0  0  0  0  0  0  0  0
    8.5918   12.8706   26.2365 O    0  0  0  0  0  0  0  0  0  0  0  0
    6.4394   12.0175   25.6004 C    0  0  0  0  0  0  0  0  0  0  0  0
    5.9515   11.7785   27.0514 C    0  0  0  0  0  0  0  0  0  0  0  0
    5.1262   13.2365   27.7732 S    0  0  0  0  0  0  0  0  0  0  0  0
    6.3926   14.5128   27.4214 C    0  0  0  0  0  0  0  0  0  0  0  0
    6.8622   14.5557   25.9387 C    0  0  0  0  0  0  0  0  0  0  0  0
    9.7747   15.6786   24.5835 H    0  0  0  0  0  0  0  0  0  0  0  0
   10.2871   14.0740   25.0299 H    0  0  0  0  0  0  0  0  0  0  0  0
   12.1066   15.3575   24.0468 H    0  0  0  0  0  0  0  0  0  0  0  0
   11.8111   13.7956   23.3033 H    0  0  0  0  0  0  0  0  0  0  0  0
   11.0491   16.5452   22.1734 H    0  0  0  0  0  0  0  0  0  0  0  0
   12.2198   15.3982   21.5233 H    0  0  0  0  0  0  0  0  0  0  0  0
    8.4824   15.8623   22.1696 H    0  0  0  0  0  0  0  0  0  0  0  0
    8.0541   14.3820   21.3794 H    0  0  0  0  0  0  0  0  0  0  0  0
   10.3989   13.7140   21.1941 H    0  0  0  0  0  0  0  0  0  0  0  0
   11.1307   13.6929   19.1721 H    0  0  0  0  0  0  0  0  0  0  0  0
   10.7531   14.8772   17.9437 H    0  0  0  0  0  0  0  0  0  0  0  0
    9.1352   13.6723   26.4104 H    0  0  0  0  0  0  0  0  0  0  0  0
    5.5426   12.1899   24.9973 H    0  0  0  0  0  0  0  0  0  0  0  0
    6.8830   11.0893   25.2253 H    0  0  0  0  0  0  0  0  0  0  0  0
    5.2430   10.9494   27.0647 H    0  0  0  0  0  0  0  0  0  0  0  0
    6.7885   11.4953   27.6933 H    0  0  0  0  0  0  0  0  0  0  0  0
    5.9805   15.4831   27.7012 H    0  0  0  0  0  0  0  0  0  0  0  0
    7.2455   14.3350   28.0845 H    0  0  0  0  0  0  0  0  0  0  0  0
    6.0158   14.8483   25.3076 H    0  0  0  0  0  0  0  0  0  0  0  0
    7.5943   15.3605   25.8460 H    0  0  0  0  0  0  0  0  0  0  0  0
  3  2  1  0  0  0  0
  4  3  1  0  0  0  0
 19  4  1  0  0  0  0
  1  2  2  0  0  0  0
 20  4  1  0  0  0  0
  5  4  1  0  0  0  0
 21  5  1  0  0  0  0
 22  5  1  0  0  0  0
  6  5  1  0  0  0  0
 23  6  1  0  0  0  0
 24  6  1  0  0  0  0
  7  3  1  0  0  0  0
 25  7  1  0  0  0  0
 26  7  1  0  0  0  0
  8  6  1  0  0  0  0
  9  8  1  0  0  0  0
 27  8  1  0  0  0  0
 10  9  2  0  0  0  0
 11  9  1  0  0  0  0
 28 11  1  0  0  0  0
 29 11  1  0  0  0  0
 12  2  1  0  0  0  0
 18 12  1  0  0  0  0
 13 12  1  0  0  0  0
 30 13  1  0  0  0  0
 14 12  1  0  0  0  0
 31 14  1  0  0  0  0
 32 14  1  0  0  0  0
 15 14  1  0  0  0  0
 33 15  1  0  0  0  0
 34 15  1  0  0  0  0
 16 15  1  0  0  0  0
 17 16  1  0  0  0  0
 35 17  1  0  0  0  0
 36 17  1  0  0  0  0
 37 18  1  0  0  0  0
 38 18  1  0  0  0  0
  8  7  1  0  0  0  0
 18 17  1  0  0  0  0
M  END
>  <FittedScore>
-29.63

$$$$
