A71EV2A-x4708a_best-RMSD
  FITTED

 38 39     0  0  0  0  0  0  0999 V2000
    7.0751   12.9613   22.9436 O    0  0  0  0  0  0  0  0  0  0  0  0
    7.8938   13.3266   23.7714 C    0  0  0  0  0  0  0  0  0  0  0  0
    8.9251   14.1505   23.3309 N    0  0  0  0  0  0  0  0  0  0  0  0
   10.1519   14.5411   24.1105 C    0  0  0  0  0  0  0  0  0  0  0  0
   11.4705   14.9014   23.3577 C    0  0  0  0  0  0  0  0  0  0  0  0
   11.2742   15.5816   21.9866 C    0  0  0  0  0  0  0  0  0  0  0  0
    8.8603   14.8664   21.9995 C    0  0  0  0  0  0  0  0  0  0  0  0
   10.1900   14.8167   21.2004 C    0  0  0  0  0  0  0  0  0  0  0  0
   10.0987   15.3072   19.7561 C    0  0  0  0  0  0  0  0  0  0  0  0
    9.4245   16.2462   19.3824 O    0  0  0  0  0  0  0  0  0  0  0  0
   10.7318   14.5367   18.8558 N    0  0  0  0  0  0  0  0  0  0  0  0
    7.5364   13.0219   25.2774 C    0  0  0  0  0  0  0  0  0  0  0  0
    8.6366   13.0820   26.2148 O    0  0  0  0  0  0  0  0  0  0  0  0
    6.9957   11.5383   25.3922 C    0  0  0  0  0  0  0  0  0  0  0  0
    6.4192   11.1132   26.7670 C    0  0  0  0  0  0  0  0  0  0  0  0
    5.0641   12.1898   27.3495 S    0  0  0  0  0  0  0  0  0  0  0  0
    5.8594   13.8254   27.1544 C    0  0  0  0  0  0  0  0  0  0  0  0
    6.4512   14.0603   25.7394 C    0  0  0  0  0  0  0  0  0  0  0  0
    9.8897   15.3498   24.7977 H    0  0  0  0  0  0  0  0  0  0  0  0
   10.4690   13.6900   24.7094 H    0  0  0  0  0  0  0  0  0  0  0  0
   12.0876   15.5425   23.9919 H    0  0  0  0  0  0  0  0  0  0  0  0
   12.0519   13.9869   23.2001 H    0  0  0  0  0  0  0  0  0  0  0  0
   10.9900   16.6313   22.1203 H    0  0  0  0  0  0  0  0  0  0  0  0
   12.2207   15.5695   21.4395 H    0  0  0  0  0  0  0  0  0  0  0  0
    8.5739   15.9079   22.1835 H    0  0  0  0  0  0  0  0  0  0  0  0
    8.0857   14.4775   21.3344 H    0  0  0  0  0  0  0  0  0  0  0  0
   10.4736   13.7552   21.1739 H    0  0  0  0  0  0  0  0  0  0  0  0
   11.0589   13.6107   19.1310 H    0  0  0  0  0  0  0  0  0  0  0  0
   10.6771   14.7754   17.8762 H    0  0  0  0  0  0  0  0  0  0  0  0
    8.9984   13.9911   26.2917 H    0  0  0  0  0  0  0  0  0  0  0  0
    6.1864   11.3638   24.6778 H    0  0  0  0  0  0  0  0  0  0  0  0
    7.7928   10.8433   25.1073 H    0  0  0  0  0  0  0  0  0  0  0  0
    6.0326   10.0933   26.7014 H    0  0  0  0  0  0  0  0  0  0  0  0
    7.2085   11.1065   27.5226 H    0  0  0  0  0  0  0  0  0  0  0  0
    5.1007   14.5814   27.3669 H    0  0  0  0  0  0  0  0  0  0  0  0
    6.6344   13.9235   27.9178 H    0  0  0  0  0  0  0  0  0  0  0  0
    5.6140   14.0536   25.0341 H    0  0  0  0  0  0  0  0  0  0  0  0
    6.8696   15.0697   25.6966 H    0  0  0  0  0  0  0  0  0  0  0  0
  3  2  1  0  0  0  0
  4  3  1  0  0  0  0
 19  4  1  0  0  0  0
  1  2  2  0  0  0  0
 20  4  1  0  0  0  0
  5  4  1  0  0  0  0
 21  5  1  0  0  0  0
 22  5  1  0  0  0  0
  6  5  1  0  0  0  0
 23  6  1  0  0  0  0
 24  6  1  0  0  0  0
  7  3  1  0  0  0  0
 25  7  1  0  0  0  0
 26  7  1  0  0  0  0
  8  6  1  0  0  0  0
  9  8  1  0  0  0  0
 27  8  1  0  0  0  0
 10  9  2  0  0  0  0
 11  9  1  0  0  0  0
 28 11  1  0  0  0  0
 29 11  1  0  0  0  0
 12  2  1  0  0  0  0
 18 12  1  0  0  0  0
 13 12  1  0  0  0  0
 30 13  1  0  0  0  0
 14 12  1  0  0  0  0
 31 14  1  0  0  0  0
 32 14  1  0  0  0  0
 15 14  1  0  0  0  0
 33 15  1  0  0  0  0
 34 15  1  0  0  0  0
 16 15  1  0  0  0  0
 17 16  1  0  0  0  0
 35 17  1  0  0  0  0
 36 17  1  0  0  0  0
 37 18  1  0  0  0  0
 38 18  1  0  0  0  0
  8  7  1  0  0  0  0
 18 17  1  0  0  0  0
M  END
>  <FittedScore>
-30.21

$$$$
