A71EV2A-x3942a_lowest-energy
  FITTED

 40 41     0  0  0  0  0  0  0999 V2000
    9.6301   16.7308   19.2967 O    0  0  0  0  0  0  0  0  0  0  0  0
   10.2012   15.7431   19.7048 C    0  0  0  0  0  0  0  0  0  0  0  0
   10.7252   14.8651   18.8319 N    0  0  0  0  0  0  0  0  0  0  0  0
   10.1659   15.3143   21.1674 C    0  0  0  0  0  0  0  0  0  0  0  0
   10.9200   16.3414   22.0593 C    0  0  0  0  0  0  0  0  0  0  0  0
   10.8114   15.9391   23.5521 C    0  0  0  0  0  0  0  0  0  0  0  0
    9.3409   15.6528   23.9735 C    0  0  0  0  0  0  0  0  0  0  0  0
    8.6965   15.0968   21.6612 C    0  0  0  0  0  0  0  0  0  0  0  0
    8.6063   14.6732   23.0951 N    0  0  0  0  0  0  0  0  0  0  0  0
    7.8483   13.5972   23.5254 C    0  0  0  0  0  0  0  0  0  0  0  0
    7.0937   12.9976   22.7714 O    0  0  0  0  0  0  0  0  0  0  0  0
    8.0340   13.1146   24.9714 C    0  0  0  0  0  0  0  0  0  0  0  0
    7.2345   11.8565   25.3603 C    0  0  0  0  0  0  0  0  0  0  0  0
    7.7294   10.5707   25.0115 C    0  0  0  0  0  0  0  0  0  0  0  0
    8.8991   10.4734   24.2516 O    0  0  0  0  0  0  0  0  0  0  0  0
    9.3699    9.2746   23.5879 C    0  0  0  0  0  0  0  0  0  0  0  0
    6.0109   11.9570   26.0791 C    0  0  0  0  0  0  0  0  0  0  0  0
    5.2089   13.4539   26.4476 CL   0  0  0  0  0  0  0  0  0  0  0  0
    5.3513   10.8018   26.5127 C    0  0  0  0  0  0  0  0  0  0  0  0
    5.8580    9.5441   26.1965 C    0  0  0  0  0  0  0  0  0  0  0  0
    7.0197    9.4248   25.4317 C    0  0  0  0  0  0  0  0  0  0  0  0
   10.7127   15.0967   17.8436 H    0  0  0  0  0  0  0  0  0  0  0  0
   10.9948   13.9318   19.1410 H    0  0  0  0  0  0  0  0  0  0  0  0
   10.6872   14.3547   21.2764 H    0  0  0  0  0  0  0  0  0  0  0  0
   11.9739   16.3881   21.7689 H    0  0  0  0  0  0  0  0  0  0  0  0
   10.5147   17.3506   21.9200 H    0  0  0  0  0  0  0  0  0  0  0  0
   11.4255   15.0549   23.7388 H    0  0  0  0  0  0  0  0  0  0  0  0
   11.2188   16.7437   24.1689 H    0  0  0  0  0  0  0  0  0  0  0  0
    9.3722   15.3621   25.0212 H    0  0  0  0  0  0  0  0  0  0  0  0
    8.7809   16.5941   23.9678 H    0  0  0  0  0  0  0  0  0  0  0  0
    8.2366   14.3633   20.9923 H    0  0  0  0  0  0  0  0  0  0  0  0
    8.1100   16.0133   21.5319 H    0  0  0  0  0  0  0  0  0  0  0  0
    9.0988   12.9254   25.1345 H    0  0  0  0  0  0  0  0  0  0  0  0
    7.7914   13.9151   25.6689 H    0  0  0  0  0  0  0  0  0  0  0  0
   10.2619    9.5263   23.0101 H    0  0  0  0  0  0  0  0  0  0  0  0
    8.6122    8.8895   22.8986 H    0  0  0  0  0  0  0  0  0  0  0  0
    9.6318    8.5058   24.3193 H    0  0  0  0  0  0  0  0  0  0  0  0
    4.4246   10.8747   27.0778 H    0  0  0  0  0  0  0  0  0  0  0  0
    5.3289    8.6511   26.5202 H    0  0  0  0  0  0  0  0  0  0  0  0
    7.3520    8.4245   25.1737 H    0  0  0  0  0  0  0  0  0  0  0  0
  9 10  1  0  0  0  0
  7  9  1  0  0  0  0
  6  7  1  0  0  0  0
  5  6  1  0  0  0  0
  4  5  1  0  0  0  0
  2  4  1  0  0  0  0
  1  2  2  0  0  0  0
  3  2  1  0  0  0  0
 22  3  1  0  0  0  0
 23  3  1  0  0  0  0
 24  4  1  0  0  0  0
 25  5  1  0  0  0  0
 26  5  1  0  0  0  0
 27  6  1  0  0  0  0
 28  6  1  0  0  0  0
 29  7  1  0  0  0  0
 30  7  1  0  0  0  0
  8  4  1  0  0  0  0
 31  8  1  0  0  0  0
 32  8  1  0  0  0  0
 11 10  2  0  0  0  0
 12 10  1  0  0  0  0
 33 12  1  0  0  0  0
 34 12  1  0  0  0  0
 13 12  1  0  0  0  0
 14 13  1  0  0  0  0
 21 14  2  0  0  0  0
 15 14  1  0  0  0  0
 16 15  1  0  0  0  0
 35 16  1  0  0  0  0
 36 16  1  0  0  0  0
 37 16  1  0  0  0  0
 17 13  2  0  0  0  0
 18 17  1  0  0  0  0
 19 17  1  0  0  0  0
 38 19  1  0  0  0  0
 20 19  2  0  0  0  0
 39 20  1  0  0  0  0
 40 21  1  0  0  0  0
  9  8  1  0  0  0  0
 21 20  1  0  0  0  0
M  END
>  <FittedScore>
-31.58

$$$$
