A71EV2A-x3942a_best-RMSD
  FITTED

 40 41     0  0  0  0  0  0  0999 V2000
    9.6386   16.7046   19.2520 O    0  0  0  0  0  0  0  0  0  0  0  0
   10.1791   15.7000   19.6579 C    0  0  0  0  0  0  0  0  0  0  0  0
   10.7081   14.8109   18.7938 N    0  0  0  0  0  0  0  0  0  0  0  0
   10.1520   15.2770   21.1204 C    0  0  0  0  0  0  0  0  0  0  0  0
   11.0000   16.2579   21.9823 C    0  0  0  0  0  0  0  0  0  0  0  0
   10.9115   15.8658   23.4785 C    0  0  0  0  0  0  0  0  0  0  0  0
    9.4376   15.6804   23.9411 C    0  0  0  0  0  0  0  0  0  0  0  0
    8.6883   15.1452   21.6616 C    0  0  0  0  0  0  0  0  0  0  0  0
    8.6395   14.7191   23.1000 N    0  0  0  0  0  0  0  0  0  0  0  0
    7.9132   13.6291   23.5582 C    0  0  0  0  0  0  0  0  0  0  0  0
    7.1289   13.0295   22.8344 O    0  0  0  0  0  0  0  0  0  0  0  0
    8.2061   13.0974   24.9747 C    0  0  0  0  0  0  0  0  0  0  0  0
    7.3986   11.8488   25.3860 C    0  0  0  0  0  0  0  0  0  0  0  0
    7.8201   10.5652   24.9486 C    0  0  0  0  0  0  0  0  0  0  0  0
    8.9719   10.4580   24.1674 O    0  0  0  0  0  0  0  0  0  0  0  0
    9.4457    9.2450   23.5296 C    0  0  0  0  0  0  0  0  0  0  0  0
    6.2242   11.9560   26.1835 C    0  0  0  0  0  0  0  0  0  0  0  0
    5.5609   13.4536   26.7637 CL   0  0  0  0  0  0  0  0  0  0  0  0
    5.5022   10.8079   26.5348 C    0  0  0  0  0  0  0  0  0  0  0  0
    5.9150    9.5527   26.0875 C    0  0  0  0  0  0  0  0  0  0  0  0
    7.0562    9.4304   25.2972 C    0  0  0  0  0  0  0  0  0  0  0  0
   10.9441   13.8686   19.1014 H    0  0  0  0  0  0  0  0  0  0  0  0
   10.6234   14.9978   17.8015 H    0  0  0  0  0  0  0  0  0  0  0  0
   10.6162   14.2870   21.2156 H    0  0  0  0  0  0  0  0  0  0  0  0
   12.0440   16.2256   21.6560 H    0  0  0  0  0  0  0  0  0  0  0  0
   10.6612   17.2918   21.8478 H    0  0  0  0  0  0  0  0  0  0  0  0
   11.4673   14.9381   23.6445 H    0  0  0  0  0  0  0  0  0  0  0  0
   11.3955   16.6376   24.0815 H    0  0  0  0  0  0  0  0  0  0  0  0
    9.4739   15.4139   24.9946 H    0  0  0  0  0  0  0  0  0  0  0  0
    8.9345   16.6532   23.9240 H    0  0  0  0  0  0  0  0  0  0  0  0
    8.1606   14.4484   21.0060 H    0  0  0  0  0  0  0  0  0  0  0  0
    8.1528   16.0966   21.5535 H    0  0  0  0  0  0  0  0  0  0  0  0
    9.2765   12.8738   25.0511 H    0  0  0  0  0  0  0  0  0  0  0  0
    8.0438   13.8824   25.7086 H    0  0  0  0  0  0  0  0  0  0  0  0
    9.7459    8.5059   24.2770 H    0  0  0  0  0  0  0  0  0  0  0  0
   10.3075    9.4965   22.9075 H    0  0  0  0  0  0  0  0  0  0  0  0
    8.6686    8.8214   22.8867 H    0  0  0  0  0  0  0  0  0  0  0  0
    4.6050   10.8852   27.1425 H    0  0  0  0  0  0  0  0  0  0  0  0
    5.3344    8.6689   26.3415 H    0  0  0  0  0  0  0  0  0  0  0  0
    7.3302    8.4353   24.9589 H    0  0  0  0  0  0  0  0  0  0  0  0
  9 10  1  0  0  0  0
  7  9  1  0  0  0  0
  6  7  1  0  0  0  0
  5  6  1  0  0  0  0
  4  5  1  0  0  0  0
  2  4  1  0  0  0  0
  1  2  2  0  0  0  0
  3  2  1  0  0  0  0
 22  3  1  0  0  0  0
 23  3  1  0  0  0  0
 24  4  1  0  0  0  0
 25  5  1  0  0  0  0
 26  5  1  0  0  0  0
 27  6  1  0  0  0  0
 28  6  1  0  0  0  0
 29  7  1  0  0  0  0
 30  7  1  0  0  0  0
  8  4  1  0  0  0  0
 31  8  1  0  0  0  0
 32  8  1  0  0  0  0
 11 10  2  0  0  0  0
 12 10  1  0  0  0  0
 33 12  1  0  0  0  0
 34 12  1  0  0  0  0
 13 12  1  0  0  0  0
 14 13  1  0  0  0  0
 21 14  2  0  0  0  0
 15 14  1  0  0  0  0
 16 15  1  0  0  0  0
 35 16  1  0  0  0  0
 36 16  1  0  0  0  0
 37 16  1  0  0  0  0
 17 13  2  0  0  0  0
 18 17  1  0  0  0  0
 19 17  1  0  0  0  0
 38 19  1  0  0  0  0
 20 19  2  0  0  0  0
 39 20  1  0  0  0  0
 40 21  1  0  0  0  0
  9  8  1  0  0  0  0
 21 20  1  0  0  0  0
M  END
>  <FittedScore>
-32.99

$$$$
