A71EV2A-x5898a_lowest-energy
  FITTED

 46 49     0  0  0  0  0  0  0999 V2000
    6.6486   16.8105   24.0465 C    0  0  0  0  0  0  0  0  0  0  0  0
    6.0494   15.5519   23.5717 N    0  0  0  0  0  0  0  0  0  0  0  0
    4.8833   15.5435   22.8768 C    0  0  0  0  0  0  0  0  0  0  0  0
    4.6840   14.2403   22.4546 C    0  0  0  0  0  0  0  0  0  0  0  0
    5.7836   13.3704   22.9062 N    0  0  0  0  0  0  0  0  0  0  0  0
    6.6845   14.3326   23.5929 C    0  0  0  0  0  0  0  0  0  0  0  0
    8.1041   13.9842   24.1019 C    0  0  0  0  0  0  0  0  0  0  0  0
    8.3175   12.4539   24.2407 C    0  0  0  0  0  0  0  0  0  0  0  0
    7.4527   11.7486   25.1091 C    0  0  0  0  0  0  0  0  0  0  0  0
    7.5374   10.3566   25.2395 C    0  0  0  0  0  0  0  0  0  0  0  0
    8.5067    9.6464   24.5208 C    0  0  0  0  0  0  0  0  0  0  0  0
    9.3977   10.3238   23.6840 C    0  0  0  0  0  0  0  0  0  0  0  0
    9.2957   11.7111   23.5364 C    0  0  0  0  0  0  0  0  0  0  0  0
    9.1479   14.8058   23.3331 N    0  0  0  0  0  0  0  0  0  0  0  0
   10.6017   14.7748   23.8686 C    0  0  0  0  0  0  0  0  0  0  0  0
   11.5968   15.4558   22.8551 C    0  0  0  0  0  0  0  0  0  0  0  0
   10.9835   16.6337   21.9920 C    0  0  0  0  0  0  0  0  0  0  0  0
   10.3053   15.4274   21.2106 C    0  0  0  0  0  0  0  0  0  0  0  0
   10.3751   15.9355   19.7358 C    0  0  0  0  0  0  0  0  0  0  0  0
   10.6540   14.9564   18.8502 N    0  0  0  0  0  0  0  0  0  0  0  0
    9.9855   16.9736   19.2413 O    0  0  0  0  0  0  0  0  0  0  0  0
    9.0371   14.7690   21.7959 C    0  0  0  0  0  0  0  0  0  0  0  0
   11.7096   14.7357   21.4487 C    0  0  0  0  0  0  0  0  0  0  0  0
    7.1628   16.6873   25.0037 H    0  0  0  0  0  0  0  0  0  0  0  0
    5.8993   17.5911   24.1978 H    0  0  0  0  0  0  0  0  0  0  0  0
    7.3762   17.2046   23.3301 H    0  0  0  0  0  0  0  0  0  0  0  0
    4.2419   16.4000   22.6814 H    0  0  0  0  0  0  0  0  0  0  0  0
    3.8550   13.8627   21.8640 H    0  0  0  0  0  0  0  0  0  0  0  0
    8.1683   14.3743   25.1206 H    0  0  0  0  0  0  0  0  0  0  0  0
    6.6904   12.2766   25.6798 H    0  0  0  0  0  0  0  0  0  0  0  0
    6.8430    9.8260   25.8885 H    0  0  0  0  0  0  0  0  0  0  0  0
    8.5745    8.5662   24.6190 H    0  0  0  0  0  0  0  0  0  0  0  0
   10.1662    9.7808   23.1374 H    0  0  0  0  0  0  0  0  0  0  0  0
   10.0008   12.1812   22.8632 H    0  0  0  0  0  0  0  0  0  0  0  0
    8.8703   15.7771   23.5435 H    0  0  0  0  0  0  0  0  0  0  0  0
   10.9363   13.7580   24.0626 H    0  0  0  0  0  0  0  0  0  0  0  0
   10.6207   15.2890   24.8292 H    0  0  0  0  0  0  0  0  0  0  0  0
   12.5522   15.6734   23.3448 H    0  0  0  0  0  0  0  0  0  0  0  0
   11.7312   17.2670   21.4860 H    0  0  0  0  0  0  0  0  0  0  0  0
   10.3018   17.3105   22.5188 H    0  0  0  0  0  0  0  0  0  0  0  0
   10.7096   15.1548   17.8588 H    0  0  0  0  0  0  0  0  0  0  0  0
   10.7519   14.0013   19.1619 H    0  0  0  0  0  0  0  0  0  0  0  0
    8.9333   13.7463   21.4224 H    0  0  0  0  0  0  0  0  0  0  0  0
    8.1528   15.3259   21.4748 H    0  0  0  0  0  0  0  0  0  0  0  0
   12.5759   15.0419   20.8355 H    0  0  0  0  0  0  0  0  0  0  0  0
   11.7044   13.6402   21.4686 H    0  0  0  0  0  0  0  0  0  0  0  0
  7 14  1  0  0  0  0
  6  7  1  0  0  0  0
  5  6  2  0  0  0  0
  4  5  1  0  0  0  0
  3  4  2  0  0  0  0
  2  3  1  0  0  0  0
  1  2  1  0  0  0  0
 24  1  1  0  0  0  0
 25  1  1  0  0  0  0
 26  1  1  0  0  0  0
 27  3  1  0  0  0  0
 28  4  1  0  0  0  0
  8  7  1  0  0  0  0
 29  7  1  0  0  0  0
  9  8  2  0  0  0  0
 10  9  1  0  0  0  0
 30  9  1  0  0  0  0
 11 10  2  0  0  0  0
 31 10  1  0  0  0  0
 12 11  1  0  0  0  0
 32 11  1  0  0  0  0
 13 12  2  0  0  0  0
 33 12  1  0  0  0  0
 34 13  1  0  0  0  0
 15 14  1  0  0  0  0
 35 14  1  0  0  0  0
 36 15  1  0  0  0  0
 37 15  1  0  0  0  0
 16 15  1  0  0  0  0
 17 16  1  0  0  0  0
 38 16  1  0  0  0  0
 18 17  1  0  0  0  0
 39 17  1  0  0  0  0
 40 17  1  0  0  0  0
 19 18  1  0  0  0  0
 22 18  1  0  0  0  0
 23 18  1  0  0  0  0
 20 19  1  0  0  0  0
 21 19  2  0  0  0  0
 41 20  1  0  0  0  0
 42 20  1  0  0  0  0
 43 22  1  0  0  0  0
 44 22  1  0  0  0  0
 45 23  1  0  0  0  0
 46 23  1  0  0  0  0
  6  2  1  0  0  0  0
 13  8  1  0  0  0  0
 22 14  1  0  0  0  0
 23 16  1  0  0  0  0
M  CHG  1  14   1
M  END
>  <FittedScore>
-25.27

$$$$
