A71EV2A-x3324a_lowest-energy
  FITTED

 44 46     0  0  0  0  0  0  0999 V2000
   15.4375   18.0712   16.1821 O    0  0  0  0  0  0  0  0  0  0  0  0
   15.3003   18.7787   17.4268 S    0  0  0  0  0  0  0  0  0  0  0  0
   16.4880   19.0713   18.1827 O    0  0  0  0  0  0  0  0  0  0  0  0
   14.5121   20.3368   17.0909 C    0  0  0  0  0  0  0  0  0  0  0  0
   14.0898   17.9660   18.4602 C    0  0  0  0  0  0  0  0  0  0  0  0
   13.9588   18.2900   19.8246 C    0  0  0  0  0  0  0  0  0  0  0  0
   13.0299   17.6096   20.6302 C    0  0  0  0  0  0  0  0  0  0  0  0
   13.2418   16.9861   17.9141 C    0  0  0  0  0  0  0  0  0  0  0  0
   12.3320   16.2927   18.7238 C    0  0  0  0  0  0  0  0  0  0  0  0
   12.2132   16.5980   20.0893 C    0  0  0  0  0  0  0  0  0  0  0  0
   11.2539   15.8007   20.9753 C    0  0  0  0  0  0  0  0  0  0  0  0
   11.9567   14.7860   21.9114 C    0  0  0  0  0  0  0  0  0  0  0  0
   11.1211   13.6263   22.2661 N    0  0  0  0  0  0  0  0  0  0  0  0
   10.2245   13.5529   23.2897 C    0  0  0  0  0  0  0  0  0  0  0  0
    9.8816   14.5261   23.9346 O    0  0  0  0  0  0  0  0  0  0  0  0
    9.6931   12.2528   23.5734 C    0  0  0  0  0  0  0  0  0  0  0  0
   10.0698   11.1359   23.0153 N    0  0  0  0  0  0  0  0  0  0  0  0
    8.6529   11.8929   24.5788 C    0  0  0  0  0  0  0  0  0  0  0  0
    8.5361   10.5184   24.5311 C    0  0  0  0  0  0  0  0  0  0  0  0
    9.4253   10.0877   23.6010 N    0  0  0  0  0  0  0  0  0  0  0  0
    9.6322    8.7212   23.1122 C    0  0  0  0  0  0  0  0  0  0  0  0
    7.6288    9.8170   25.3333 C    0  0  0  0  0  0  0  0  0  0  0  0
    6.8406   10.5543   26.2354 C    0  0  0  0  0  0  0  0  0  0  0  0
    6.9545   11.9603   26.2965 C    0  0  0  0  0  0  0  0  0  0  0  0
    7.8611   12.6443   25.4625 C    0  0  0  0  0  0  0  0  0  0  0  0
   14.3209   20.8640   18.0275 H    0  0  0  0  0  0  0  0  0  0  0  0
   13.5656   20.1640   16.5755 H    0  0  0  0  0  0  0  0  0  0  0  0
   15.1647   20.9450   16.4619 H    0  0  0  0  0  0  0  0  0  0  0  0
   14.5874   19.0584   20.2698 H    0  0  0  0  0  0  0  0  0  0  0  0
   12.9594   17.8615   21.6872 H    0  0  0  0  0  0  0  0  0  0  0  0
   13.3024   16.7217   16.8610 H    0  0  0  0  0  0  0  0  0  0  0  0
   11.7250   15.5092   18.2736 H    0  0  0  0  0  0  0  0  0  0  0  0
   10.6577   16.4828   21.5885 H    0  0  0  0  0  0  0  0  0  0  0  0
   10.5214   15.2767   20.3510 H    0  0  0  0  0  0  0  0  0  0  0  0
   12.8496   14.3899   21.4221 H    0  0  0  0  0  0  0  0  0  0  0  0
   12.3062   15.2925   22.8166 H    0  0  0  0  0  0  0  0  0  0  0  0
   11.2070   12.8128   21.6597 H    0  0  0  0  0  0  0  0  0  0  0  0
    9.6503    7.9970   23.9292 H    0  0  0  0  0  0  0  0  0  0  0  0
   10.5833    8.6146   22.5854 H    0  0  0  0  0  0  0  0  0  0  0  0
    8.8375    8.4214   22.4231 H    0  0  0  0  0  0  0  0  0  0  0  0
    7.5394    8.7335   25.2735 H    0  0  0  0  0  0  0  0  0  0  0  0
    6.1432   10.0356   26.8887 H    0  0  0  0  0  0  0  0  0  0  0  0
    6.3406   12.5234   26.9905 H    0  0  0  0  0  0  0  0  0  0  0  0
    7.9390   13.7277   25.5139 H    0  0  0  0  0  0  0  0  0  0  0  0
 11 12  1  0  0  0  0
 10 11  1  0  0  0  0
  7 10  2  0  0  0  0
  6  7  1  0  0  0  0
  5  6  2  0  0  0  0
  2  5  1  0  0  0  0
  1  2  2  0  0  0  0
  3  2  2  0  0  0  0
  4  2  1  0  0  0  0
 26  4  1  0  0  0  0
 27  4  1  0  0  0  0
 28  4  1  0  0  0  0
 29  6  1  0  0  0  0
 30  7  1  0  0  0  0
  8  5  1  0  0  0  0
 31  8  1  0  0  0  0
  9  8  2  0  0  0  0
 32  9  1  0  0  0  0
 33 11  1  0  0  0  0
 34 11  1  0  0  0  0
 35 12  1  0  0  0  0
 36 12  1  0  0  0  0
 13 12  1  0  0  0  0
 37 13  1  0  0  0  0
 14 13  1  0  0  0  0
 15 14  2  0  0  0  0
 16 14  1  0  0  0  0
 17 16  2  0  0  0  0
 18 16  1  0  0  0  0
 25 18  2  0  0  0  0
 19 18  1  0  0  0  0
 20 17  1  0  0  0  0
 21 20  1  0  0  0  0
 38 21  1  0  0  0  0
 39 21  1  0  0  0  0
 40 21  1  0  0  0  0
 22 19  2  0  0  0  0
 41 22  1  0  0  0  0
 23 22  1  0  0  0  0
 42 23  1  0  0  0  0
 24 23  2  0  0  0  0
 43 24  1  0  0  0  0
 44 25  1  0  0  0  0
 10  9  1  0  0  0  0
 20 19  1  0  0  0  0
 25 24  1  0  0  0  0
M  END
>  <FittedScore>
-29.82

$$$$
