A71EV2A-x3324a_best-RMSD
  FITTED

 44 46     0  0  0  0  0  0  0999 V2000
   14.8908   20.6547   18.7101 O    0  0  0  0  0  0  0  0  0  0  0  0
   14.3650   19.6844   17.7904 S    0  0  0  0  0  0  0  0  0  0  0  0
   13.4970   20.1269   16.7388 O    0  0  0  0  0  0  0  0  0  0  0  0
   15.7520   18.8580   17.0388 C    0  0  0  0  0  0  0  0  0  0  0  0
   13.4995   18.3907   18.6458 C    0  0  0  0  0  0  0  0  0  0  0  0
   13.1046   17.2408   17.9394 C    0  0  0  0  0  0  0  0  0  0  0  0
   12.4053   16.2147   18.5876 C    0  0  0  0  0  0  0  0  0  0  0  0
   13.1766   18.5041   20.0088 C    0  0  0  0  0  0  0  0  0  0  0  0
   12.4666   17.4784   20.6542 C    0  0  0  0  0  0  0  0  0  0  0  0
   12.0794   16.3214   19.9524 C    0  0  0  0  0  0  0  0  0  0  0  0
   11.2788   15.2136   20.6463 C    0  0  0  0  0  0  0  0  0  0  0  0
   11.8448   14.6757   21.9821 C    0  0  0  0  0  0  0  0  0  0  0  0
   11.1202   13.4727   22.4224 N    0  0  0  0  0  0  0  0  0  0  0  0
   10.2405   13.3718   23.4611 C    0  0  0  0  0  0  0  0  0  0  0  0
    9.8877   14.3239   24.1319 O    0  0  0  0  0  0  0  0  0  0  0  0
    9.6970   12.0650   23.6823 C    0  0  0  0  0  0  0  0  0  0  0  0
   10.0774   10.9708   23.0827 N    0  0  0  0  0  0  0  0  0  0  0  0
    8.6236   11.6746   24.6383 C    0  0  0  0  0  0  0  0  0  0  0  0
    8.4666   10.3111   24.4936 C    0  0  0  0  0  0  0  0  0  0  0  0
    9.3603    9.9137   23.5547 N    0  0  0  0  0  0  0  0  0  0  0  0
    9.6431    8.5617   23.0768 C    0  0  0  0  0  0  0  0  0  0  0  0
    7.5222    9.5908   25.2343 C    0  0  0  0  0  0  0  0  0  0  0  0
    6.7499   10.2895   26.1788 C    0  0  0  0  0  0  0  0  0  0  0  0
    6.9172   11.6807   26.3434 C    0  0  0  0  0  0  0  0  0  0  0  0
    7.8557   12.3901   25.5702 C    0  0  0  0  0  0  0  0  0  0  0  0
   16.3217   18.3385   17.8118 H    0  0  0  0  0  0  0  0  0  0  0  0
   16.3985   19.5928   16.5533 H    0  0  0  0  0  0  0  0  0  0  0  0
   15.4117   18.1398   16.2921 H    0  0  0  0  0  0  0  0  0  0  0  0
   13.3244   17.1397   16.8794 H    0  0  0  0  0  0  0  0  0  0  0  0
   12.1072   15.3401   18.0114 H    0  0  0  0  0  0  0  0  0  0  0  0
   13.4591   19.3892   20.5708 H    0  0  0  0  0  0  0  0  0  0  0  0
   12.2113   17.5955   21.7046 H    0  0  0  0  0  0  0  0  0  0  0  0
   10.2643   15.5777   20.8290 H    0  0  0  0  0  0  0  0  0  0  0  0
   11.1570   14.3618   19.9675 H    0  0  0  0  0  0  0  0  0  0  0  0
   12.8933   14.4002   21.8543 H    0  0  0  0  0  0  0  0  0  0  0  0
   11.8211   15.4496   22.7531 H    0  0  0  0  0  0  0  0  0  0  0  0
   11.2065   12.6649   21.8079 H    0  0  0  0  0  0  0  0  0  0  0  0
    9.5646    7.8280   23.8809 H    0  0  0  0  0  0  0  0  0  0  0  0
   10.6497    8.4802   22.6575 H    0  0  0  0  0  0  0  0  0  0  0  0
    8.9513    8.2569   22.2910 H    0  0  0  0  0  0  0  0  0  0  0  0
    7.3999    8.5190   25.0994 H    0  0  0  0  0  0  0  0  0  0  0  0
    6.0319    9.7519   26.7923 H    0  0  0  0  0  0  0  0  0  0  0  0
    6.3114   12.2148   27.0705 H    0  0  0  0  0  0  0  0  0  0  0  0
    7.9691   13.4603   25.7062 H    0  0  0  0  0  0  0  0  0  0  0  0
 11 12  1  0  0  0  0
 10 11  1  0  0  0  0
  7 10  2  0  0  0  0
  6  7  1  0  0  0  0
  5  6  2  0  0  0  0
  2  5  1  0  0  0  0
  1  2  2  0  0  0  0
  3  2  2  0  0  0  0
  4  2  1  0  0  0  0
 26  4  1  0  0  0  0
 27  4  1  0  0  0  0
 28  4  1  0  0  0  0
 29  6  1  0  0  0  0
 30  7  1  0  0  0  0
  8  5  1  0  0  0  0
 31  8  1  0  0  0  0
  9  8  2  0  0  0  0
 32  9  1  0  0  0  0
 33 11  1  0  0  0  0
 34 11  1  0  0  0  0
 35 12  1  0  0  0  0
 36 12  1  0  0  0  0
 13 12  1  0  0  0  0
 37 13  1  0  0  0  0
 14 13  1  0  0  0  0
 15 14  2  0  0  0  0
 16 14  1  0  0  0  0
 17 16  2  0  0  0  0
 18 16  1  0  0  0  0
 25 18  2  0  0  0  0
 19 18  1  0  0  0  0
 20 17  1  0  0  0  0
 21 20  1  0  0  0  0
 38 21  1  0  0  0  0
 39 21  1  0  0  0  0
 40 21  1  0  0  0  0
 22 19  2  0  0  0  0
 41 22  1  0  0  0  0
 23 22  1  0  0  0  0
 42 23  1  0  0  0  0
 24 23  2  0  0  0  0
 43 24  1  0  0  0  0
 44 25  1  0  0  0  0
 10  9  1  0  0  0  0
 20 19  1  0  0  0  0
 25 24  1  0  0  0  0
M  END
>  <FittedScore>
-28.77

$$$$
