A71EV2A-x5728a_best-RMSD
  FITTED

 38 40     0  0  0  0  0  0  0999 V2000
   10.6469   14.6960   18.8194 N    0  0  0  0  0  0  0  0  0  0  0  0
   10.3243   15.5796   19.7853 C    0  0  0  0  0  0  0  0  0  0  0  0
    9.7787   16.6275   19.4968 O    0  0  0  0  0  0  0  0  0  0  0  0
   10.6370   15.1260   21.2128 C    0  0  0  0  0  0  0  0  0  0  0  0
   11.6015   16.0497   21.9691 C    0  0  0  0  0  0  0  0  0  0  0  0
   11.3244   15.7117   23.4409 C    0  0  0  0  0  0  0  0  0  0  0  0
    9.9565   15.1383   23.5435 N    0  0  0  0  0  0  0  0  0  0  0  0
    9.3763   14.7415   24.7297 C    0  0  0  0  0  0  0  0  0  0  0  0
   10.0145   14.8023   25.7700 O    0  0  0  0  0  0  0  0  0  0  0  0
    7.9355   14.1807   24.7501 C    0  0  0  0  0  0  0  0  0  0  0  0
    7.0972   14.9192   25.8451 C    0  0  0  0  0  0  0  0  0  0  0  0
    5.7220   14.2395   26.0495 C    0  0  0  0  0  0  0  0  0  0  0  0
    5.8963   12.8125   26.2982 O    0  0  0  0  0  0  0  0  0  0  0  0
    6.8186   12.0388   25.5988 C    0  0  0  0  0  0  0  0  0  0  0  0
    6.6883   10.6418   25.6603 C    0  0  0  0  0  0  0  0  0  0  0  0
    7.5794    9.8223   24.9562 C    0  0  0  0  0  0  0  0  0  0  0  0
    8.6168   10.3977   24.2069 C    0  0  0  0  0  0  0  0  0  0  0  0
    9.7279    9.3897   23.3377 CL   0  0  0  0  0  0  0  0  0  0  0  0
    8.7611   11.7935   24.1572 C    0  0  0  0  0  0  0  0  0  0  0  0
    7.8668   12.6366   24.8535 C    0  0  0  0  0  0  0  0  0  0  0  0
    9.4267   15.0058   22.1637 C    0  0  0  0  0  0  0  0  0  0  0  0
   10.5607   14.9537   17.8423 H    0  0  0  0  0  0  0  0  0  0  0  0
   10.9310   13.7487   19.0628 H    0  0  0  0  0  0  0  0  0  0  0  0
   11.1134   14.1362   21.1817 H    0  0  0  0  0  0  0  0  0  0  0  0
   11.3781   17.1047   21.7812 H    0  0  0  0  0  0  0  0  0  0  0  0
   12.6434   15.8638   21.6968 H    0  0  0  0  0  0  0  0  0  0  0  0
   11.4159   16.6150   24.0540 H    0  0  0  0  0  0  0  0  0  0  0  0
   12.0557   14.9815   23.8036 H    0  0  0  0  0  0  0  0  0  0  0  0
    7.4190   14.4274   23.8203 H    0  0  0  0  0  0  0  0  0  0  0  0
    6.9546   15.9671   25.5658 H    0  0  0  0  0  0  0  0  0  0  0  0
    7.6159   14.9136   26.8089 H    0  0  0  0  0  0  0  0  0  0  0  0
    5.0880   14.3794   25.1700 H    0  0  0  0  0  0  0  0  0  0  0  0
    5.2038   14.6802   26.9046 H    0  0  0  0  0  0  0  0  0  0  0  0
    5.8908   10.1909   26.2474 H    0  0  0  0  0  0  0  0  0  0  0  0
    7.4668    8.7398   25.0007 H    0  0  0  0  0  0  0  0  0  0  0  0
    9.5696   12.2123   23.5648 H    0  0  0  0  0  0  0  0  0  0  0  0
    8.6868   15.7923   21.9872 H    0  0  0  0  0  0  0  0  0  0  0  0
    8.9379   14.0401   22.0042 H    0  0  0  0  0  0  0  0  0  0  0  0
  8 10  1  0  0  0  0
  7  8  1  0  0  0  0
  6  7  1  0  0  0  0
  5  6  1  0  0  0  0
  4  5  1  0  0  0  0
  2  4  1  0  0  0  0
  1  2  1  0  0  0  0
 22  1  1  0  0  0  0
 23  1  1  0  0  0  0
  3  2  2  0  0  0  0
 24  4  1  0  0  0  0
 25  5  1  0  0  0  0
 26  5  1  0  0  0  0
 27  6  1  0  0  0  0
 28  6  1  0  0  0  0
 21  7  1  0  0  0  0
  9  8  2  0  0  0  0
 11 10  1  0  0  0  0
 29 10  1  0  0  0  0
 12 11  1  0  0  0  0
 30 11  1  0  0  0  0
 31 11  1  0  0  0  0
 13 12  1  0  0  0  0
 32 12  1  0  0  0  0
 33 12  1  0  0  0  0
 14 13  1  0  0  0  0
 15 14  2  0  0  0  0
 16 15  1  0  0  0  0
 34 15  1  0  0  0  0
 17 16  2  0  0  0  0
 35 16  1  0  0  0  0
 18 17  1  0  0  0  0
 19 17  1  0  0  0  0
 20 19  2  0  0  0  0
 36 19  1  0  0  0  0
 37 21  1  0  0  0  0
 38 21  1  0  0  0  0
 20 10  1  0  0  0  0
 20 14  1  0  0  0  0
 21  4  1  0  0  0  0
M  END
>  <FittedScore>
-32.88

$$$$
