A71EV2A-x4461a_best-RMSD
  FITTED

 35 36     0  0  0  0  0  0  0999 V2000
    9.1274   10.1145   24.0134 CL   0  0  0  0  0  0  0  0  0  0  0  0
    7.8586   10.6162   25.0823 C    0  0  0  0  0  0  0  0  0  0  0  0
    7.0117    9.6244   25.6056 C    0  0  0  0  0  0  0  0  0  0  0  0
    6.0152    9.8990   26.4913 N    0  0  0  0  0  0  0  0  0  0  0  0
    5.8044   11.1948   26.8517 C    0  0  0  0  0  0  0  0  0  0  0  0
    6.5936   12.2443   26.3553 C    0  0  0  0  0  0  0  0  0  0  0  0
    7.6501   11.9640   25.4637 C    0  0  0  0  0  0  0  0  0  0  0  0
    8.5427   13.1130   24.9792 C    0  0  0  0  0  0  0  0  0  0  0  0
    8.3183   13.5871   23.5306 C    0  0  0  0  0  0  0  0  0  0  0  0
    7.4735   13.0404   22.8360 O    0  0  0  0  0  0  0  0  0  0  0  0
    9.0536   14.6634   23.0574 N    0  0  0  0  0  0  0  0  0  0  0  0
    9.9839   15.5409   23.8601 C    0  0  0  0  0  0  0  0  0  0  0  0
   11.3902   15.7244   23.2246 C    0  0  0  0  0  0  0  0  0  0  0  0
   11.3046   16.2150   21.7551 C    0  0  0  0  0  0  0  0  0  0  0  0
    8.9442   15.1850   21.6518 C    0  0  0  0  0  0  0  0  0  0  0  0
   10.3359   15.3016   20.9487 C    0  0  0  0  0  0  0  0  0  0  0  0
   10.2337   15.7417   19.4874 C    0  0  0  0  0  0  0  0  0  0  0  0
    9.6642   16.7471   19.1106 O    0  0  0  0  0  0  0  0  0  0  0  0
   10.6859   14.8482   18.5887 N    0  0  0  0  0  0  0  0  0  0  0  0
    7.1637    8.5917   25.3029 H    0  0  0  0  0  0  0  0  0  0  0  0
    4.9981   11.4250   27.5447 H    0  0  0  0  0  0  0  0  0  0  0  0
    6.3847   13.2639   26.6714 H    0  0  0  0  0  0  0  0  0  0  0  0
    8.3964   13.9640   25.6509 H    0  0  0  0  0  0  0  0  0  0  0  0
    9.5867   12.8102   25.1092 H    0  0  0  0  0  0  0  0  0  0  0  0
    9.5154   16.5224   23.9858 H    0  0  0  0  0  0  0  0  0  0  0  0
   10.1562   15.1822   24.8729 H    0  0  0  0  0  0  0  0  0  0  0  0
   11.9647   16.4415   23.8151 H    0  0  0  0  0  0  0  0  0  0  0  0
   11.9360   14.7771   23.2657 H    0  0  0  0  0  0  0  0  0  0  0  0
   10.9654   17.2563   21.7289 H    0  0  0  0  0  0  0  0  0  0  0  0
   12.3012   16.1967   21.3037 H    0  0  0  0  0  0  0  0  0  0  0  0
    8.4456   16.1613   21.6679 H    0  0  0  0  0  0  0  0  0  0  0  0
    8.3134   14.5514   21.0211 H    0  0  0  0  0  0  0  0  0  0  0  0
   10.7668   14.2929   20.9808 H    0  0  0  0  0  0  0  0  0  0  0  0
   10.9309   13.9036   18.8811 H    0  0  0  0  0  0  0  0  0  0  0  0
   10.6648   15.0712   17.6002 H    0  0  0  0  0  0  0  0  0  0  0  0
  8  9  1  0  0  0  0
  7  8  1  0  0  0  0
  6  7  2  0  0  0  0
  5  6  1  0  0  0  0
  4  5  2  0  0  0  0
  3  4  1  0  0  0  0
  2  3  2  0  0  0  0
  1  2  1  0  0  0  0
 20  3  1  0  0  0  0
 21  5  1  0  0  0  0
 22  6  1  0  0  0  0
 23  8  1  0  0  0  0
 24  8  1  0  0  0  0
 10  9  2  0  0  0  0
 11  9  1  0  0  0  0
 12 11  1  0  0  0  0
 25 12  1  0  0  0  0
 26 12  1  0  0  0  0
 13 12  1  0  0  0  0
 27 13  1  0  0  0  0
 28 13  1  0  0  0  0
 14 13  1  0  0  0  0
 29 14  1  0  0  0  0
 30 14  1  0  0  0  0
 15 11  1  0  0  0  0
 31 15  1  0  0  0  0
 32 15  1  0  0  0  0
 16 14  1  0  0  0  0
 17 16  1  0  0  0  0
 33 16  1  0  0  0  0
 18 17  2  0  0  0  0
 19 17  1  0  0  0  0
 34 19  1  0  0  0  0
 35 19  1  0  0  0  0
  7  2  1  0  0  0  0
 16 15  1  0  0  0  0
M  END
>  <FittedScore>
-31.01

$$$$
