A71EV2A-x4461a_lowest-energy
  FITTED

 35 36     0  0  0  0  0  0  0999 V2000
    9.3821   10.3919   23.8496 CL   0  0  0  0  0  0  0  0  0  0  0  0
    8.0632   10.6852   24.9428 C    0  0  0  0  0  0  0  0  0  0  0  0
    7.3296    9.5827   25.4090 C    0  0  0  0  0  0  0  0  0  0  0  0
    6.3043    9.6996   26.2995 N    0  0  0  0  0  0  0  0  0  0  0  0
    5.9605   10.9410   26.7352 C    0  0  0  0  0  0  0  0  0  0  0  0
    6.6278   12.0958   26.2980 C    0  0  0  0  0  0  0  0  0  0  0  0
    7.7002   11.9794   25.3886 C    0  0  0  0  0  0  0  0  0  0  0  0
    8.4440   13.2404   24.9414 C    0  0  0  0  0  0  0  0  0  0  0  0
    8.1991   13.6715   23.4819 C    0  0  0  0  0  0  0  0  0  0  0  0
    7.3824   13.0732   22.7962 O    0  0  0  0  0  0  0  0  0  0  0  0
    8.9373   14.7220   22.9669 N    0  0  0  0  0  0  0  0  0  0  0  0
    9.7722   15.6961   23.7574 C    0  0  0  0  0  0  0  0  0  0  0  0
   11.2218   15.8375   23.2266 C    0  0  0  0  0  0  0  0  0  0  0  0
   11.2425   16.2277   21.7239 C    0  0  0  0  0  0  0  0  0  0  0  0
    8.9094   15.1203   21.5184 C    0  0  0  0  0  0  0  0  0  0  0  0
   10.3330   15.2740   20.8968 C    0  0  0  0  0  0  0  0  0  0  0  0
   10.2750   15.6895   19.4312 C    0  0  0  0  0  0  0  0  0  0  0  0
    9.6777   16.6676   19.0197 O    0  0  0  0  0  0  0  0  0  0  0  0
   10.7513   14.7776   18.5650 N    0  0  0  0  0  0  0  0  0  0  0  0
    7.5910    8.5929   25.0448 H    0  0  0  0  0  0  0  0  0  0  0  0
    5.1425   11.0447   27.4428 H    0  0  0  0  0  0  0  0  0  0  0  0
    6.3121   13.0690   26.6697 H    0  0  0  0  0  0  0  0  0  0  0  0
    8.1618   14.0669   25.5982 H    0  0  0  0  0  0  0  0  0  0  0  0
    9.5113   13.0724   25.1045 H    0  0  0  0  0  0  0  0  0  0  0  0
    9.2806   16.6763   23.7331 H    0  0  0  0  0  0  0  0  0  0  0  0
    9.8447   15.4591   24.8178 H    0  0  0  0  0  0  0  0  0  0  0  0
   11.7508   16.5952   23.8114 H    0  0  0  0  0  0  0  0  0  0  0  0
   11.7559   14.8947   23.3747 H    0  0  0  0  0  0  0  0  0  0  0  0
   10.9287   17.2717   21.6055 H    0  0  0  0  0  0  0  0  0  0  0  0
   12.2726   16.1646   21.3548 H    0  0  0  0  0  0  0  0  0  0  0  0
    8.3412   16.0528   21.4213 H    0  0  0  0  0  0  0  0  0  0  0  0
    8.3730   14.3852   20.9092 H    0  0  0  0  0  0  0  0  0  0  0  0
   10.7951   14.2795   20.9696 H    0  0  0  0  0  0  0  0  0  0  0  0
   10.9888   13.8391   18.8817 H    0  0  0  0  0  0  0  0  0  0  0  0
   10.7163   14.9663   17.5642 H    0  0  0  0  0  0  0  0  0  0  0  0
  8  9  1  0  0  0  0
  7  8  1  0  0  0  0
  6  7  2  0  0  0  0
  5  6  1  0  0  0  0
  4  5  2  0  0  0  0
  3  4  1  0  0  0  0
  2  3  2  0  0  0  0
  1  2  1  0  0  0  0
 20  3  1  0  0  0  0
 21  5  1  0  0  0  0
 22  6  1  0  0  0  0
 23  8  1  0  0  0  0
 24  8  1  0  0  0  0
 10  9  2  0  0  0  0
 11  9  1  0  0  0  0
 12 11  1  0  0  0  0
 25 12  1  0  0  0  0
 26 12  1  0  0  0  0
 13 12  1  0  0  0  0
 27 13  1  0  0  0  0
 28 13  1  0  0  0  0
 14 13  1  0  0  0  0
 29 14  1  0  0  0  0
 30 14  1  0  0  0  0
 15 11  1  0  0  0  0
 31 15  1  0  0  0  0
 32 15  1  0  0  0  0
 16 14  1  0  0  0  0
 17 16  1  0  0  0  0
 33 16  1  0  0  0  0
 18 17  2  0  0  0  0
 19 17  1  0  0  0  0
 34 19  1  0  0  0  0
 35 19  1  0  0  0  0
  7  2  1  0  0  0  0
 16 15  1  0  0  0  0
M  END
>  <FittedScore>
-31.16

$$$$
