A71EV2A-x3954a_lowest-energy
  FITTED

 43 45     0  0  0  0  0  0  0999 V2000
   10.0792   16.8613   19.1046 O    0  0  0  0  0  0  0  0  0  0  0  0
   10.4489   15.7901   19.5425 C    0  0  0  0  0  0  0  0  0  0  0  0
   10.7359   14.7885   18.6945 N    0  0  0  0  0  0  0  0  0  0  0  0
   10.4140   15.4175   21.0232 C    0  0  0  0  0  0  0  0  0  0  0  0
   11.2585   16.4110   21.8743 C    0  0  0  0  0  0  0  0  0  0  0  0
   11.1295   16.0880   23.3843 C    0  0  0  0  0  0  0  0  0  0  0  0
    9.6430   15.9321   23.8231 C    0  0  0  0  0  0  0  0  0  0  0  0
    8.9446   15.2936   21.5509 C    0  0  0  0  0  0  0  0  0  0  0  0
    8.8590   14.9351   23.0079 N    0  0  0  0  0  0  0  0  0  0  0  0
    8.0535   13.9159   23.4890 C    0  0  0  0  0  0  0  0  0  0  0  0
    7.3087   13.2977   22.7392 O    0  0  0  0  0  0  0  0  0  0  0  0
    8.0742   13.5533   24.9958 C    0  0  0  0  0  0  0  0  0  0  0  0
    7.0739   14.4041   25.8450 C    0  0  0  0  0  0  0  0  0  0  0  0
    6.0573   13.4076   26.4642 C    0  0  0  0  0  0  0  0  0  0  0  0
    6.5434   12.0460   26.0614 C    0  0  0  0  0  0  0  0  0  0  0  0
    5.9815   10.7993   26.3615 C    0  0  0  0  0  0  0  0  0  0  0  0
    6.5906    9.6636   25.8036 C    0  0  0  0  0  0  0  0  0  0  0  0
    7.6666   12.1233   25.2499 C    0  0  0  0  0  0  0  0  0  0  0  0
    8.2916   11.0315   24.7414 N    0  0  0  0  0  0  0  0  0  0  0  0
    7.7560    9.8056   25.0161 C    0  0  0  0  0  0  0  0  0  0  0  0
    8.3356    8.6398   24.5395 O    0  0  0  0  0  0  0  0  0  0  0  0
    9.5324    8.6374   23.7220 C    0  0  0  0  0  0  0  0  0  0  0  0
   10.6658   14.9600   17.6969 H    0  0  0  0  0  0  0  0  0  0  0  0
   10.8869   13.8359   19.0342 H    0  0  0  0  0  0  0  0  0  0  0  0
   10.8812   14.4321   21.1411 H    0  0  0  0  0  0  0  0  0  0  0  0
   12.3080   16.3475   21.5695 H    0  0  0  0  0  0  0  0  0  0  0  0
   10.9414   17.4442   21.6946 H    0  0  0  0  0  0  0  0  0  0  0  0
   11.6766   15.1687   23.6079 H    0  0  0  0  0  0  0  0  0  0  0  0
   11.6010   16.8858   23.9627 H    0  0  0  0  0  0  0  0  0  0  0  0
    9.6387   15.7254   24.8897 H    0  0  0  0  0  0  0  0  0  0  0  0
    9.1481   16.9045   23.7405 H    0  0  0  0  0  0  0  0  0  0  0  0
    8.4388   14.5630   20.9128 H    0  0  0  0  0  0  0  0  0  0  0  0
    8.4013   16.2304   21.3906 H    0  0  0  0  0  0  0  0  0  0  0  0
    9.0819   13.6405   25.4149 H    0  0  0  0  0  0  0  0  0  0  0  0
    6.5520   15.1535   25.2454 H    0  0  0  0  0  0  0  0  0  0  0  0
    7.6109   14.9324   26.6372 H    0  0  0  0  0  0  0  0  0  0  0  0
    5.0526   13.5785   26.0682 H    0  0  0  0  0  0  0  0  0  0  0  0
    6.0266   13.4950   27.5522 H    0  0  0  0  0  0  0  0  0  0  0  0
    5.0966   10.7091   26.9863 H    0  0  0  0  0  0  0  0  0  0  0  0
    6.1776    8.6768   25.9934 H    0  0  0  0  0  0  0  0  0  0  0  0
    9.3653    9.1943   22.7960 H    0  0  0  0  0  0  0  0  0  0  0  0
    9.7977    7.6160   23.4500 H    0  0  0  0  0  0  0  0  0  0  0  0
   10.3528    9.0926   24.2799 H    0  0  0  0  0  0  0  0  0  0  0  0
  9 10  1  0  0  0  0
  7  9  1  0  0  0  0
  6  7  1  0  0  0  0
  5  6  1  0  0  0  0
  4  5  1  0  0  0  0
  2  4  1  0  0  0  0
  1  2  2  0  0  0  0
  3  2  1  0  0  0  0
 23  3  1  0  0  0  0
 24  3  1  0  0  0  0
 25  4  1  0  0  0  0
 26  5  1  0  0  0  0
 27  5  1  0  0  0  0
 28  6  1  0  0  0  0
 29  6  1  0  0  0  0
 30  7  1  0  0  0  0
 31  7  1  0  0  0  0
  8  4  1  0  0  0  0
 32  8  1  0  0  0  0
 33  8  1  0  0  0  0
 11 10  2  0  0  0  0
 12 10  1  0  0  0  0
 34 12  1  0  0  0  0
 13 12  1  0  0  0  0
 35 13  1  0  0  0  0
 36 13  1  0  0  0  0
 14 13  1  0  0  0  0
 37 14  1  0  0  0  0
 38 14  1  0  0  0  0
 15 14  1  0  0  0  0
 18 15  2  0  0  0  0
 16 15  1  0  0  0  0
 39 16  1  0  0  0  0
 17 16  2  0  0  0  0
 40 17  1  0  0  0  0
 19 18  1  0  0  0  0
 20 17  1  0  0  0  0
 21 20  1  0  0  0  0
 22 21  1  0  0  0  0
 41 22  1  0  0  0  0
 42 22  1  0  0  0  0
 43 22  1  0  0  0  0
  9  8  1  0  0  0  0
 18 12  1  0  0  0  0
 20 19  2  0  0  0  0
M  END
>  <FittedScore>
-28.53

$$$$
