A71EV2A-x4928a_lowest-energy
  FITTED

 36 37     0  0  0  0  0  0  0999 V2000
   10.2290   14.3290   25.1776 O    0  0  0  0  0  0  0  0  0  0  0  0
   10.2412   14.7001   24.0212 C    0  0  0  0  0  0  0  0  0  0  0  0
   11.5838   15.1430   23.4128 C    0  0  0  0  0  0  0  0  0  0  0  0
   11.4949   15.7793   21.9998 C    0  0  0  0  0  0  0  0  0  0  0  0
   10.5109   14.9748   21.1208 C    0  0  0  0  0  0  0  0  0  0  0  0
   10.4549   15.5061   19.6942 C    0  0  0  0  0  0  0  0  0  0  0  0
    9.8749   16.5241   19.3764 O    0  0  0  0  0  0  0  0  0  0  0  0
   10.9028   14.6585   18.7546 N    0  0  0  0  0  0  0  0  0  0  0  0
    9.1086   14.9320   21.7755 C    0  0  0  0  0  0  0  0  0  0  0  0
    9.1315   14.5758   23.2229 N    0  0  0  0  0  0  0  0  0  0  0  0
    7.8294   14.0305   23.7111 C    0  0  0  0  0  0  0  0  0  0  0  0
    7.8734   12.5321   24.0505 C    0  0  0  0  0  0  0  0  0  0  0  0
    6.9757   12.0384   25.0137 C    0  0  0  0  0  0  0  0  0  0  0  0
    6.9304   10.6764   25.3222 C    0  0  0  0  0  0  0  0  0  0  0  0
    7.7928    9.7882   24.6718 C    0  0  0  0  0  0  0  0  0  0  0  0
    8.7594   11.6279   23.4232 C    0  0  0  0  0  0  0  0  0  0  0  0
    8.7276   10.2592   23.7350 C    0  0  0  0  0  0  0  0  0  0  0  0
    9.6890    9.2871   23.0760 C    0  0  0  0  0  0  0  0  0  0  0  0
   12.0616   15.8631   24.0857 H    0  0  0  0  0  0  0  0  0  0  0  0
   12.2451   14.2718   23.3652 H    0  0  0  0  0  0  0  0  0  0  0  0
   11.1617   16.8192   22.0834 H    0  0  0  0  0  0  0  0  0  0  0  0
   12.4895   15.8003   21.5413 H    0  0  0  0  0  0  0  0  0  0  0  0
   10.8739   13.9383   21.1092 H    0  0  0  0  0  0  0  0  0  0  0  0
   10.8434   14.9143   17.7677 H    0  0  0  0  0  0  0  0  0  0  0  0
   11.1118   13.6984   18.9945 H    0  0  0  0  0  0  0  0  0  0  0  0
    8.6121   15.9009   21.6789 H    0  0  0  0  0  0  0  0  0  0  0  0
    8.5105   14.2127   21.2089 H    0  0  0  0  0  0  0  0  0  0  0  0
    7.5430   14.6028   24.5996 H    0  0  0  0  0  0  0  0  0  0  0  0
    7.0137   14.1994   22.9993 H    0  0  0  0  0  0  0  0  0  0  0  0
    6.2958   12.7168   25.5221 H    0  0  0  0  0  0  0  0  0  0  0  0
    6.2222   10.3086   26.0583 H    0  0  0  0  0  0  0  0  0  0  0  0
    7.7554    8.7314   24.9222 H    0  0  0  0  0  0  0  0  0  0  0  0
    9.4787   11.9805   22.6886 H    0  0  0  0  0  0  0  0  0  0  0  0
   10.6124    9.7885   22.7816 H    0  0  0  0  0  0  0  0  0  0  0  0
    9.2500    8.8161   22.1929 H    0  0  0  0  0  0  0  0  0  0  0  0
    9.9743    8.5053   23.7833 H    0  0  0  0  0  0  0  0  0  0  0  0
  9 10  1  0  0  0  0
  5  9  1  0  0  0  0
  6  5  1  0  0  0  0
  4  5  1  0  0  0  0
  3  4  1  0  0  0  0
  2  3  1  0  0  0  0
  1  2  2  0  0  0  0
 19  3  1  0  0  0  0
 20  3  1  0  0  0  0
 21  4  1  0  0  0  0
 22  4  1  0  0  0  0
 23  5  1  0  0  0  0
  7  6  2  0  0  0  0
  8  6  1  0  0  0  0
 24  8  1  0  0  0  0
 25  8  1  0  0  0  0
 26  9  1  0  0  0  0
 27  9  1  0  0  0  0
 11 10  1  0  0  0  0
 28 11  1  0  0  0  0
 29 11  1  0  0  0  0
 12 11  1  0  0  0  0
 13 12  1  0  0  0  0
 30 13  1  0  0  0  0
 14 13  2  0  0  0  0
 31 14  1  0  0  0  0
 15 14  1  0  0  0  0
 32 15  1  0  0  0  0
 16 12  2  0  0  0  0
 33 16  1  0  0  0  0
 17 15  2  0  0  0  0
 18 17  1  0  0  0  0
 34 18  1  0  0  0  0
 35 18  1  0  0  0  0
 36 18  1  0  0  0  0
 10  2  1  0  0  0  0
 17 16  1  0  0  0  0
M  END
>  <FittedScore>
-32.00

$$$$
