A71EV2A-x5764a_lowest-energy
  FITTED

 37 39     0  0  0  0  0  0  0999 V2000
   11.2553   15.4383   18.5800 N    0  0  0  0  0  0  0  0  0  0  0  0
   10.5115   15.8967   19.5963 C    0  0  0  0  0  0  0  0  0  0  0  0
    9.6565   16.7408   19.4010 O    0  0  0  0  0  0  0  0  0  0  0  0
   10.8091   15.2662   20.9446 C    0  0  0  0  0  0  0  0  0  0  0  0
   11.4765   16.1905   21.9715 C    0  0  0  0  0  0  0  0  0  0  0  0
   11.0747   15.5519   23.3131 C    0  0  0  0  0  0  0  0  0  0  0  0
    9.8243   14.7872   23.0965 N    0  0  0  0  0  0  0  0  0  0  0  0
    9.0344   14.2675   24.0858 C    0  0  0  0  0  0  0  0  0  0  0  0
    9.3715   14.3540   25.2531 O    0  0  0  0  0  0  0  0  0  0  0  0
    7.6582   13.6747   23.7072 C    0  0  0  0  0  0  0  0  0  0  0  0
    6.5595   14.7758   23.7305 C    0  0  0  0  0  0  0  0  0  0  0  0
    5.7184   14.4868   24.9998 C    0  0  0  0  0  0  0  0  0  0  0  0
    6.0897   13.0809   25.4065 C    0  0  0  0  0  0  0  0  0  0  0  0
    5.4553   12.2751   26.3630 C    0  0  0  0  0  0  0  0  0  0  0  0
    5.9287   10.9673   26.5691 C    0  0  0  0  0  0  0  0  0  0  0  0
    7.0173   10.4826   25.8208 C    0  0  0  0  0  0  0  0  0  0  0  0
    7.6615   11.3056   24.8791 C    0  0  0  0  0  0  0  0  0  0  0  0
    9.1418   10.6040   23.9110 BR   0  0  0  0  0  0  0  0  0  0  0  0
    7.1780   12.6135   24.6801 C    0  0  0  0  0  0  0  0  0  0  0  0
    9.5461   14.7600   21.6523 C    0  0  0  0  0  0  0  0  0  0  0  0
   12.0245   14.7907   18.7130 H    0  0  0  0  0  0  0  0  0  0  0  0
   11.0025   15.6973   17.6377 H    0  0  0  0  0  0  0  0  0  0  0  0
   11.4725   14.3990   20.8128 H    0  0  0  0  0  0  0  0  0  0  0  0
   11.1004   17.2174   21.8993 H    0  0  0  0  0  0  0  0  0  0  0  0
   12.5626   16.2102   21.8446 H    0  0  0  0  0  0  0  0  0  0  0  0
   10.9289   16.3323   24.0663 H    0  0  0  0  0  0  0  0  0  0  0  0
   11.8578   14.8754   23.6716 H    0  0  0  0  0  0  0  0  0  0  0  0
    7.6549   13.2013   22.7242 H    0  0  0  0  0  0  0  0  0  0  0  0
    5.9354   14.6870   22.8364 H    0  0  0  0  0  0  0  0  0  0  0  0
    6.9755   15.7881   23.7371 H    0  0  0  0  0  0  0  0  0  0  0  0
    4.6486   14.5623   24.7888 H    0  0  0  0  0  0  0  0  0  0  0  0
    5.9705   15.1893   25.7992 H    0  0  0  0  0  0  0  0  0  0  0  0
    4.6096   12.6515   26.9327 H    0  0  0  0  0  0  0  0  0  0  0  0
    5.4470   10.3235   27.3020 H    0  0  0  0  0  0  0  0  0  0  0  0
    7.3621    9.4644   25.9903 H    0  0  0  0  0  0  0  0  0  0  0  0
    8.6674   15.3779   21.4466 H    0  0  0  0  0  0  0  0  0  0  0  0
    9.3418   13.7419   21.3081 H    0  0  0  0  0  0  0  0  0  0  0  0
  7  8  1  0  0  0  0
  6  7  1  0  0  0  0
  5  6  1  0  0  0  0
  4  5  1  0  0  0  0
  2  4  1  0  0  0  0
  1  2  1  0  0  0  0
 21  1  1  0  0  0  0
 22  1  1  0  0  0  0
  3  2  2  0  0  0  0
 23  4  1  0  0  0  0
 24  5  1  0  0  0  0
 25  5  1  0  0  0  0
 26  6  1  0  0  0  0
 27  6  1  0  0  0  0
 20  7  1  0  0  0  0
  9  8  2  0  0  0  0
 10  8  1  0  0  0  0
 11 10  1  0  0  0  0
 28 10  1  0  0  0  0
 12 11  1  0  0  0  0
 29 11  1  0  0  0  0
 30 11  1  0  0  0  0
 13 12  1  0  0  0  0
 31 12  1  0  0  0  0
 32 12  1  0  0  0  0
 14 13  2  0  0  0  0
 15 14  1  0  0  0  0
 33 14  1  0  0  0  0
 16 15  2  0  0  0  0
 34 15  1  0  0  0  0
 17 16  1  0  0  0  0
 35 16  1  0  0  0  0
 18 17  1  0  0  0  0
 19 17  2  0  0  0  0
 36 20  1  0  0  0  0
 37 20  1  0  0  0  0
 19 10  1  0  0  0  0
 19 13  1  0  0  0  0
 20  4  1  0  0  0  0
M  END
>  <FittedScore>
-27.99

$$$$
