A71EV2A-x5533a_lowest-energy
  FITTED

 47 49     0  0  0  0  0  0  0999 V2000
    9.4336    8.7676   23.5422 C    0  0  0  0  0  0  0  0  0  0  0  0
    9.2491   10.5301   23.9633 S    0  0  0  0  0  0  0  0  0  0  0  0
    7.7408   10.7266   24.9163 C    0  0  0  0  0  0  0  0  0  0  0  0
    7.0315    9.6038   25.3864 C    0  0  0  0  0  0  0  0  0  0  0  0
    5.9186    9.7510   26.2143 C    0  0  0  0  0  0  0  0  0  0  0  0
    5.5013   11.0305   26.6061 C    0  0  0  0  0  0  0  0  0  0  0  0
    4.4192   11.1887   27.4598 O    0  0  0  0  0  0  0  0  0  0  0  0
    4.6920   10.7444   28.8078 C    0  0  0  0  0  0  0  0  0  0  0  0
    3.2808   10.1592   28.4769 C    0  0  0  0  0  0  0  0  0  0  0  0
    3.3874   11.5215   29.0763 C    0  0  0  0  0  0  0  0  0  0  0  0
    6.1655   12.1620   26.1149 C    0  0  0  0  0  0  0  0  0  0  0  0
    7.2629   12.0214   25.2478 C    0  0  0  0  0  0  0  0  0  0  0  0
    7.8553   13.2234   24.7270 N    0  0  0  0  0  0  0  0  0  0  0  0
    7.8858   13.6360   23.4315 C    0  0  0  0  0  0  0  0  0  0  0  0
    7.2436   13.0400   22.5886 O    0  0  0  0  0  0  0  0  0  0  0  0
    8.6163   14.7662   23.1367 N    0  0  0  0  0  0  0  0  0  0  0  0
    9.5793   15.4959   24.0384 C    0  0  0  0  0  0  0  0  0  0  0  0
   11.0435   15.5075   23.5014 C    0  0  0  0  0  0  0  0  0  0  0  0
   11.1410   15.9724   22.0161 C    0  0  0  0  0  0  0  0  0  0  0  0
   10.0971   15.2350   21.1233 C    0  0  0  0  0  0  0  0  0  0  0  0
   10.1517   15.7076   19.6645 C    0  0  0  0  0  0  0  0  0  0  0  0
   10.7362   14.8645   18.7917 N    0  0  0  0  0  0  0  0  0  0  0  0
    9.5234   16.6553   19.2349 O    0  0  0  0  0  0  0  0  0  0  0  0
    8.6731   15.3510   21.7534 C    0  0  0  0  0  0  0  0  0  0  0  0
    8.5436    8.4156   23.0154 H    0  0  0  0  0  0  0  0  0  0  0  0
    9.5780    8.1845   24.4554 H    0  0  0  0  0  0  0  0  0  0  0  0
   10.3042    8.6414   22.9031 H    0  0  0  0  0  0  0  0  0  0  0  0
    7.3250    8.5924   25.1395 H    0  0  0  0  0  0  0  0  0  0  0  0
    5.3891    8.8656   26.5579 H    0  0  0  0  0  0  0  0  0  0  0  0
    5.3245    9.9600   29.2126 H    0  0  0  0  0  0  0  0  0  0  0  0
    2.9712    9.3808   29.1691 H    0  0  0  0  0  0  0  0  0  0  0  0
    2.6819   10.0080   27.5517 H    0  0  0  0  0  0  0  0  0  0  0  0
    3.1273   11.6007   30.1281 H    0  0  0  0  0  0  0  0  0  0  0  0
    3.0103   12.4169   28.5521 H    0  0  0  0  0  0  0  0  0  0  0  0
    5.8130   13.1526   26.3976 H    0  0  0  0  0  0  0  0  0  0  0  0
    8.0478   13.9134   25.4443 H    0  0  0  0  0  0  0  0  0  0  0  0
    9.6080   15.0843   25.0488 H    0  0  0  0  0  0  0  0  0  0  0  0
    9.2351   16.5270   24.1633 H    0  0  0  0  0  0  0  0  0  0  0  0
   11.4630   14.5005   23.5944 H    0  0  0  0  0  0  0  0  0  0  0  0
   11.6570   16.1615   24.1266 H    0  0  0  0  0  0  0  0  0  0  0  0
   12.1502   15.7707   21.6459 H    0  0  0  0  0  0  0  0  0  0  0  0
   10.9935   17.0565   21.9581 H    0  0  0  0  0  0  0  0  0  0  0  0
   10.3541   14.1673   21.1532 H    0  0  0  0  0  0  0  0  0  0  0  0
   10.9713   13.9167   19.0844 H    0  0  0  0  0  0  0  0  0  0  0  0
   10.7227   15.0831   17.8007 H    0  0  0  0  0  0  0  0  0  0  0  0
    7.9597   14.8800   21.0729 H    0  0  0  0  0  0  0  0  0  0  0  0
    8.3633   16.3998   21.7960 H    0  0  0  0  0  0  0  0  0  0  0  0
 12 13  1  0  0  0  0
 11 12  2  0  0  0  0
  6 11  1  0  0  0  0
  5  6  2  0  0  0  0
  4  5  1  0  0  0  0
  3  4  2  0  0  0  0
  2  3  1  0  0  0  0
  1  2  1  0  0  0  0
 25  1  1  0  0  0  0
 26  1  1  0  0  0  0
 27  1  1  0  0  0  0
 28  4  1  0  0  0  0
 29  5  1  0  0  0  0
  7  6  1  0  0  0  0
  8  7  1  0  0  0  0
  9  8  1  0  0  0  0
 30  8  1  0  0  0  0
 10  9  1  0  0  0  0
 31  9  1  0  0  0  0
 32  9  1  0  0  0  0
 33 10  1  0  0  0  0
 34 10  1  0  0  0  0
 35 11  1  0  0  0  0
 14 13  1  0  0  0  0
 36 13  1  0  0  0  0
 15 14  2  0  0  0  0
 16 14  1  0  0  0  0
 17 16  1  0  0  0  0
 18 17  1  0  0  0  0
 37 17  1  0  0  0  0
 38 17  1  0  0  0  0
 19 18  1  0  0  0  0
 39 18  1  0  0  0  0
 40 18  1  0  0  0  0
 20 19  1  0  0  0  0
 41 19  1  0  0  0  0
 42 19  1  0  0  0  0
 21 20  1  0  0  0  0
 24 20  1  0  0  0  0
 43 20  1  0  0  0  0
 22 21  1  0  0  0  0
 23 21  2  0  0  0  0
 44 22  1  0  0  0  0
 45 22  1  0  0  0  0
 46 24  1  0  0  0  0
 47 24  1  0  0  0  0
 10  8  1  0  0  0  0
 12  3  1  0  0  0  0
 24 16  1  0  0  0  0
M  END
>  <FittedScore>
-36.72

$$$$
