A71EV2A-x5533a_best-RMSD
  FITTED

 47 49     0  0  0  0  0  0  0999 V2000
    9.2049    8.5753   23.4899 C    0  0  0  0  0  0  0  0  0  0  0  0
    9.3272   10.3072   24.0357 S    0  0  0  0  0  0  0  0  0  0  0  0
    7.8124   10.7276   24.8987 C    0  0  0  0  0  0  0  0  0  0  0  0
    7.0527    9.7244   25.5298 C    0  0  0  0  0  0  0  0  0  0  0  0
    5.9076   10.0397   26.2635 C    0  0  0  0  0  0  0  0  0  0  0  0
    5.4959   11.3741   26.3737 C    0  0  0  0  0  0  0  0  0  0  0  0
    4.3421   11.6817   27.0874 O    0  0  0  0  0  0  0  0  0  0  0  0
    4.5656   11.7896   28.5106 C    0  0  0  0  0  0  0  0  0  0  0  0
    3.2652   10.9310   28.3726 C    0  0  0  0  0  0  0  0  0  0  0  0
    3.1587   12.4178   28.4523 C    0  0  0  0  0  0  0  0  0  0  0  0
    6.2229   12.3871   25.7298 C    0  0  0  0  0  0  0  0  0  0  0  0
    7.3782   12.0769   24.9790 C    0  0  0  0  0  0  0  0  0  0  0  0
    8.1660   13.0908   24.3199 N    0  0  0  0  0  0  0  0  0  0  0  0
    7.8616   14.3179   23.8164 C    0  0  0  0  0  0  0  0  0  0  0  0
    6.7499   14.8042   23.7848 O    0  0  0  0  0  0  0  0  0  0  0  0
    8.9345   14.9413   23.2597 N    0  0  0  0  0  0  0  0  0  0  0  0
   10.1254   15.3575   24.0625 C    0  0  0  0  0  0  0  0  0  0  0  0
   11.4731   15.1807   23.3220 C    0  0  0  0  0  0  0  0  0  0  0  0
   11.4416   15.7814   21.8858 C    0  0  0  0  0  0  0  0  0  0  0  0
   10.1941   15.2689   21.1072 C    0  0  0  0  0  0  0  0  0  0  0  0
   10.1873   15.7753   19.6674 C    0  0  0  0  0  0  0  0  0  0  0  0
   10.6943   14.9114   18.7737 N    0  0  0  0  0  0  0  0  0  0  0  0
    9.5795   16.7579   19.2915 O    0  0  0  0  0  0  0  0  0  0  0  0
    8.8886   15.5695   21.9065 C    0  0  0  0  0  0  0  0  0  0  0  0
   10.0520    8.3478   22.8380 H    0  0  0  0  0  0  0  0  0  0  0  0
    8.2793    8.4266   22.9282 H    0  0  0  0  0  0  0  0  0  0  0  0
    9.2378    7.8935   24.3431 H    0  0  0  0  0  0  0  0  0  0  0  0
    7.3474    8.6825   25.4898 H    0  0  0  0  0  0  0  0  0  0  0  0
    5.3414    9.2457   26.7488 H    0  0  0  0  0  0  0  0  0  0  0  0
    5.2626   11.3006   29.1884 H    0  0  0  0  0  0  0  0  0  0  0  0
    3.0071   10.4027   29.2879 H    0  0  0  0  0  0  0  0  0  0  0  0
    2.7471   10.3930   27.5449 H    0  0  0  0  0  0  0  0  0  0  0  0
    2.8006   12.8127   29.3995 H    0  0  0  0  0  0  0  0  0  0  0  0
    2.7242   13.0157   27.6324 H    0  0  0  0  0  0  0  0  0  0  0  0
    5.8844   13.4157   25.8329 H    0  0  0  0  0  0  0  0  0  0  0  0
    9.0860   12.7438   24.1022 H    0  0  0  0  0  0  0  0  0  0  0  0
   10.1785   14.7996   25.0002 H    0  0  0  0  0  0  0  0  0  0  0  0
   10.0050   16.4070   24.3441 H    0  0  0  0  0  0  0  0  0  0  0  0
   11.7127   14.1139   23.2606 H    0  0  0  0  0  0  0  0  0  0  0  0
   12.2752   15.6510   23.8975 H    0  0  0  0  0  0  0  0  0  0  0  0
   12.3542   15.4797   21.3606 H    0  0  0  0  0  0  0  0  0  0  0  0
   11.4512   16.8775   21.9328 H    0  0  0  0  0  0  0  0  0  0  0  0
   10.2684   14.1733   21.0789 H    0  0  0  0  0  0  0  0  0  0  0  0
   10.7708   15.1807   17.7994 H    0  0  0  0  0  0  0  0  0  0  0  0
   10.8936   13.9518   19.0491 H    0  0  0  0  0  0  0  0  0  0  0  0
    8.0386   15.1885   21.3322 H    0  0  0  0  0  0  0  0  0  0  0  0
    8.7336   16.6489   22.0135 H    0  0  0  0  0  0  0  0  0  0  0  0
 12 13  1  0  0  0  0
 11 12  2  0  0  0  0
  6 11  1  0  0  0  0
  5  6  2  0  0  0  0
  4  5  1  0  0  0  0
  3  4  2  0  0  0  0
  2  3  1  0  0  0  0
  1  2  1  0  0  0  0
 25  1  1  0  0  0  0
 26  1  1  0  0  0  0
 27  1  1  0  0  0  0
 28  4  1  0  0  0  0
 29  5  1  0  0  0  0
  7  6  1  0  0  0  0
  8  7  1  0  0  0  0
  9  8  1  0  0  0  0
 30  8  1  0  0  0  0
 10  9  1  0  0  0  0
 31  9  1  0  0  0  0
 32  9  1  0  0  0  0
 33 10  1  0  0  0  0
 34 10  1  0  0  0  0
 35 11  1  0  0  0  0
 14 13  1  0  0  0  0
 36 13  1  0  0  0  0
 15 14  2  0  0  0  0
 16 14  1  0  0  0  0
 17 16  1  0  0  0  0
 18 17  1  0  0  0  0
 37 17  1  0  0  0  0
 38 17  1  0  0  0  0
 19 18  1  0  0  0  0
 39 18  1  0  0  0  0
 40 18  1  0  0  0  0
 20 19  1  0  0  0  0
 41 19  1  0  0  0  0
 42 19  1  0  0  0  0
 21 20  1  0  0  0  0
 24 20  1  0  0  0  0
 43 20  1  0  0  0  0
 22 21  1  0  0  0  0
 23 21  2  0  0  0  0
 44 22  1  0  0  0  0
 45 22  1  0  0  0  0
 46 24  1  0  0  0  0
 47 24  1  0  0  0  0
 10  8  1  0  0  0  0
 12  3  1  0  0  0  0
 24 16  1  0  0  0  0
M  END
>  <FittedScore>
-32.00

$$$$
