A71EV2A-x3706a_best-RMSD
  FITTED

 41 42     0  0  0  0  0  0  0999 V2000
    9.8035   16.8302   19.1906 O    0  0  0  0  0  0  0  0  0  0  0  0
   10.2609   15.8018   19.6577 C    0  0  0  0  0  0  0  0  0  0  0  0
   10.7799   14.8576   18.8508 N    0  0  0  0  0  0  0  0  0  0  0  0
   10.1909   15.4178   21.1350 C    0  0  0  0  0  0  0  0  0  0  0  0
   11.5447   15.6573   21.8622 C    0  0  0  0  0  0  0  0  0  0  0  0
   11.4423   15.3047   23.3785 C    0  0  0  0  0  0  0  0  0  0  0  0
   10.1911   15.9348   24.0633 C    0  0  0  0  0  0  0  0  0  0  0  0
    9.0618   16.1657   21.8909 C    0  0  0  0  0  0  0  0  0  0  0  0
    8.9309   15.6705   23.2958 N    0  0  0  0  0  0  0  0  0  0  0  0
    7.8962   14.8490   23.6649 C    0  0  0  0  0  0  0  0  0  0  0  0
    7.1032   14.4202   22.8546 O    0  0  0  0  0  0  0  0  0  0  0  0
    7.8295   14.4565   24.9629 N    0  0  0  0  0  0  0  0  0  0  0  0
    6.8126   13.5678   25.5583 C    0  0  0  0  0  0  0  0  0  0  0  0
    7.0245   12.0695   25.3115 C    0  0  0  0  0  0  0  0  0  0  0  0
    6.1298   11.1807   25.9376 C    0  0  0  0  0  0  0  0  0  0  0  0
    6.2371    9.8014   25.7355 C    0  0  0  0  0  0  0  0  0  0  0  0
    7.2415    9.2940   24.9040 C    0  0  0  0  0  0  0  0  0  0  0  0
    8.0534   11.5399   24.4937 C    0  0  0  0  0  0  0  0  0  0  0  0
    8.1673   10.1553   24.2944 C    0  0  0  0  0  0  0  0  0  0  0  0
    9.2994    9.5980   23.4492 C    0  0  0  0  0  0  0  0  0  0  0  0
   11.0486   13.9468   19.2114 H    0  0  0  0  0  0  0  0  0  0  0  0
   10.7303   14.9727   17.8499 H    0  0  0  0  0  0  0  0  0  0  0  0
    9.9584   14.3446   21.2021 H    0  0  0  0  0  0  0  0  0  0  0  0
   12.3283   15.0532   21.3983 H    0  0  0  0  0  0  0  0  0  0  0  0
   11.8448   16.7037   21.7491 H    0  0  0  0  0  0  0  0  0  0  0  0
   11.4126   14.2192   23.4985 H    0  0  0  0  0  0  0  0  0  0  0  0
   12.3423   15.6552   23.8857 H    0  0  0  0  0  0  0  0  0  0  0  0
   10.1497   15.5664   25.0902 H    0  0  0  0  0  0  0  0  0  0  0  0
   10.3304   17.0172   24.1558 H    0  0  0  0  0  0  0  0  0  0  0  0
    8.1313   16.0904   21.3191 H    0  0  0  0  0  0  0  0  0  0  0  0
    9.2690   17.2399   21.9103 H    0  0  0  0  0  0  0  0  0  0  0  0
    8.4811   14.8578   25.6287 H    0  0  0  0  0  0  0  0  0  0  0  0
    6.8264   13.7502   26.6357 H    0  0  0  0  0  0  0  0  0  0  0  0
    5.8204   13.8684   25.2103 H    0  0  0  0  0  0  0  0  0  0  0  0
    5.3396   11.5603   26.5808 H    0  0  0  0  0  0  0  0  0  0  0  0
    5.5374    9.1230   26.2212 H    0  0  0  0  0  0  0  0  0  0  0  0
    7.3091    8.2179   24.7549 H    0  0  0  0  0  0  0  0  0  0  0  0
    8.7800   12.1901   24.0076 H    0  0  0  0  0  0  0  0  0  0  0  0
    9.4795   10.2266   22.5723 H    0  0  0  0  0  0  0  0  0  0  0  0
    9.0890    8.5844   23.0951 H    0  0  0  0  0  0  0  0  0  0  0  0
   10.2201    9.5674   24.0380 H    0  0  0  0  0  0  0  0  0  0  0  0
  9 10  1  0  0  0  0
  7  9  1  0  0  0  0
  6  7  1  0  0  0  0
  5  6  1  0  0  0  0
  4  5  1  0  0  0  0
  2  4  1  0  0  0  0
  1  2  2  0  0  0  0
  3  2  1  0  0  0  0
 21  3  1  0  0  0  0
 22  3  1  0  0  0  0
 23  4  1  0  0  0  0
 24  5  1  0  0  0  0
 25  5  1  0  0  0  0
 26  6  1  0  0  0  0
 27  6  1  0  0  0  0
 28  7  1  0  0  0  0
 29  7  1  0  0  0  0
  8  4  1  0  0  0  0
 30  8  1  0  0  0  0
 31  8  1  0  0  0  0
 11 10  2  0  0  0  0
 12 10  1  0  0  0  0
 32 12  1  0  0  0  0
 13 12  1  0  0  0  0
 33 13  1  0  0  0  0
 34 13  1  0  0  0  0
 14 13  1  0  0  0  0
 15 14  1  0  0  0  0
 35 15  1  0  0  0  0
 16 15  2  0  0  0  0
 36 16  1  0  0  0  0
 17 16  1  0  0  0  0
 37 17  1  0  0  0  0
 18 14  2  0  0  0  0
 38 18  1  0  0  0  0
 19 17  2  0  0  0  0
 20 19  1  0  0  0  0
 39 20  1  0  0  0  0
 40 20  1  0  0  0  0
 41 20  1  0  0  0  0
  9  8  1  0  0  0  0
 19 18  1  0  0  0  0
M  END
>  <FittedScore>
-34.25

$$$$
