A71EV2A-x3706a_lowest-energy
  FITTED

 41 42     0  0  0  0  0  0  0999 V2000
    9.9650   16.9705   19.2302 O    0  0  0  0  0  0  0  0  0  0  0  0
   10.3115   15.8860   19.6597 C    0  0  0  0  0  0  0  0  0  0  0  0
   10.6143   14.8806   18.8127 N    0  0  0  0  0  0  0  0  0  0  0  0
   10.2920   15.5043   21.1348 C    0  0  0  0  0  0  0  0  0  0  0  0
   11.6176   15.8761   21.8558 C    0  0  0  0  0  0  0  0  0  0  0  0
   11.5609   15.4293   23.3476 C    0  0  0  0  0  0  0  0  0  0  0  0
   10.2702   15.9131   24.0698 C    0  0  0  0  0  0  0  0  0  0  0  0
    9.0962   16.1245   21.9077 C    0  0  0  0  0  0  0  0  0  0  0  0
    9.0166   15.5862   23.3032 N    0  0  0  0  0  0  0  0  0  0  0  0
    7.9801   14.7783   23.7011 C    0  0  0  0  0  0  0  0  0  0  0  0
    7.1132   14.4144   22.9303 O    0  0  0  0  0  0  0  0  0  0  0  0
    7.9795   14.3275   24.9794 N    0  0  0  0  0  0  0  0  0  0  0  0
    6.9908   13.4154   25.5772 C    0  0  0  0  0  0  0  0  0  0  0  0
    7.1683   11.9279   25.2504 C    0  0  0  0  0  0  0  0  0  0  0  0
    6.2538   11.0384   25.8441 C    0  0  0  0  0  0  0  0  0  0  0  0
    6.3397    9.6648   25.6065 C    0  0  0  0  0  0  0  0  0  0  0  0
    7.3431    9.1657   24.7708 C    0  0  0  0  0  0  0  0  0  0  0  0
    8.1937   11.4070   24.4220 C    0  0  0  0  0  0  0  0  0  0  0  0
    8.2853   10.0236   24.1857 C    0  0  0  0  0  0  0  0  0  0  0  0
    9.4104    9.4456   23.3417 C    0  0  0  0  0  0  0  0  0  0  0  0
   10.7708   13.9314   19.1498 H    0  0  0  0  0  0  0  0  0  0  0  0
   10.6191   15.0598   17.8170 H    0  0  0  0  0  0  0  0  0  0  0  0
   10.1727   14.4156   21.2031 H    0  0  0  0  0  0  0  0  0  0  0  0
   12.4636   15.3870   21.3634 H    0  0  0  0  0  0  0  0  0  0  0  0
   11.7962   16.9548   21.7970 H    0  0  0  0  0  0  0  0  0  0  0  0
   11.6291   14.3386   23.4043 H    0  0  0  0  0  0  0  0  0  0  0  0
   12.4365   15.8261   23.8707 H    0  0  0  0  0  0  0  0  0  0  0  0
   10.2833   15.4916   25.0748 H    0  0  0  0  0  0  0  0  0  0  0  0
   10.3194   16.9957   24.2148 H    0  0  0  0  0  0  0  0  0  0  0  0
    8.1823   15.9518   21.3315 H    0  0  0  0  0  0  0  0  0  0  0  0
    9.1854   17.2135   21.9496 H    0  0  0  0  0  0  0  0  0  0  0  0
    8.6796   14.6744   25.6302 H    0  0  0  0  0  0  0  0  0  0  0  0
    7.0638   13.5415   26.6594 H    0  0  0  0  0  0  0  0  0  0  0  0
    5.9837   13.7407   25.2979 H    0  0  0  0  0  0  0  0  0  0  0  0
    5.4641   11.4104   26.4932 H    0  0  0  0  0  0  0  0  0  0  0  0
    5.6270    8.9842   26.0673 H    0  0  0  0  0  0  0  0  0  0  0  0
    7.3906    8.0938   24.5930 H    0  0  0  0  0  0  0  0  0  0  0  0
    8.9302   12.0599   23.9573 H    0  0  0  0  0  0  0  0  0  0  0  0
    9.6956   10.1301   22.5385 H    0  0  0  0  0  0  0  0  0  0  0  0
    9.1248    8.4958   22.8786 H    0  0  0  0  0  0  0  0  0  0  0  0
   10.2892    9.2676   23.9661 H    0  0  0  0  0  0  0  0  0  0  0  0
  9 10  1  0  0  0  0
  7  9  1  0  0  0  0
  6  7  1  0  0  0  0
  5  6  1  0  0  0  0
  4  5  1  0  0  0  0
  2  4  1  0  0  0  0
  1  2  2  0  0  0  0
  3  2  1  0  0  0  0
 21  3  1  0  0  0  0
 22  3  1  0  0  0  0
 23  4  1  0  0  0  0
 24  5  1  0  0  0  0
 25  5  1  0  0  0  0
 26  6  1  0  0  0  0
 27  6  1  0  0  0  0
 28  7  1  0  0  0  0
 29  7  1  0  0  0  0
  8  4  1  0  0  0  0
 30  8  1  0  0  0  0
 31  8  1  0  0  0  0
 11 10  2  0  0  0  0
 12 10  1  0  0  0  0
 32 12  1  0  0  0  0
 13 12  1  0  0  0  0
 33 13  1  0  0  0  0
 34 13  1  0  0  0  0
 14 13  1  0  0  0  0
 15 14  1  0  0  0  0
 35 15  1  0  0  0  0
 16 15  2  0  0  0  0
 36 16  1  0  0  0  0
 17 16  1  0  0  0  0
 37 17  1  0  0  0  0
 18 14  2  0  0  0  0
 38 18  1  0  0  0  0
 19 17  2  0  0  0  0
 20 19  1  0  0  0  0
 39 20  1  0  0  0  0
 40 20  1  0  0  0  0
 41 20  1  0  0  0  0
  9  8  1  0  0  0  0
 19 18  1  0  0  0  0
M  END
>  <FittedScore>
-34.28

$$$$
