A71EV2A-x4791a_best-RMSD
  FITTED

 41 43     0  0  0  0  0  0  0999 V2000
    2.4073   14.4710   23.5237 O    0  0  0  0  0  0  0  0  0  0  0  0
    3.5354   14.6668   23.9211 C    0  0  0  0  0  0  0  0  0  0  0  0
    4.5681   14.9955   23.1279 N    0  0  0  0  0  0  0  0  0  0  0  0
    5.8401   15.1302   23.8266 C    0  0  0  0  0  0  0  0  0  0  0  0
    5.5570   14.5137   25.2113 C    0  0  0  0  0  0  0  0  0  0  0  0
    4.0021   14.5912   25.3593 C    0  0  0  0  0  0  0  0  0  0  0  0
    3.5054   15.8190   26.1737 C    0  0  0  0  0  0  0  0  0  0  0  0
    4.3286   15.9937   27.4634 C    0  0  0  0  0  0  0  0  0  0  0  0
    5.8332   16.1288   27.1411 C    0  0  0  0  0  0  0  0  0  0  0  0
    6.4248   15.0039   26.3343 N    0  0  0  0  0  0  0  0  0  0  0  0
    7.6991   14.5298   26.5946 C    0  0  0  0  0  0  0  0  0  0  0  0
    8.4334   15.1179   27.3682 O    0  0  0  0  0  0  0  0  0  0  0  0
    8.2471   13.2830   25.8706 C    0  0  0  0  0  0  0  0  0  0  0  0
    7.5375   11.9152   26.1025 C    0  0  0  0  0  0  0  0  0  0  0  0
    7.7969   10.7913   25.2625 C    0  0  0  0  0  0  0  0  0  0  0  0
    9.0569   10.8775   23.9823 S    0  0  0  0  0  0  0  0  0  0  0  0
    9.5060    9.1760   23.5051 C    0  0  0  0  0  0  0  0  0  0  0  0
    6.5861   11.7697   27.1411 C    0  0  0  0  0  0  0  0  0  0  0  0
    5.8466   10.5875   27.2887 C    0  0  0  0  0  0  0  0  0  0  0  0
    6.0739    9.5102   26.4307 C    0  0  0  0  0  0  0  0  0  0  0  0
    7.0459    9.6051   25.4341 C    0  0  0  0  0  0  0  0  0  0  0  0
    4.4957   15.0791   22.1257 H    0  0  0  0  0  0  0  0  0  0  0  0
    6.1196   16.1846   23.8991 H    0  0  0  0  0  0  0  0  0  0  0  0
    6.6290   14.5835   23.3033 H    0  0  0  0  0  0  0  0  0  0  0  0
    5.7089   13.4455   25.0711 H    0  0  0  0  0  0  0  0  0  0  0  0
    3.6279   13.6724   25.8264 H    0  0  0  0  0  0  0  0  0  0  0  0
    3.5719   16.7344   25.5761 H    0  0  0  0  0  0  0  0  0  0  0  0
    2.4513   15.6836   26.4295 H    0  0  0  0  0  0  0  0  0  0  0  0
    3.9882   16.8865   27.9945 H    0  0  0  0  0  0  0  0  0  0  0  0
    4.1667   15.1444   28.1348 H    0  0  0  0  0  0  0  0  0  0  0  0
    6.0164   17.0783   26.6235 H    0  0  0  0  0  0  0  0  0  0  0  0
    6.3295   16.2286   28.1103 H    0  0  0  0  0  0  0  0  0  0  0  0
    8.2790   13.5291   24.8066 H    0  0  0  0  0  0  0  0  0  0  0  0
    9.2937   13.1477   26.1603 H    0  0  0  0  0  0  0  0  0  0  0  0
    9.7284    8.5747   24.3882 H    0  0  0  0  0  0  0  0  0  0  0  0
   10.3974    9.2050   22.8697 H    0  0  0  0  0  0  0  0  0  0  0  0
    8.6933    8.7251   22.9347 H    0  0  0  0  0  0  0  0  0  0  0  0
    6.3867   12.5780   27.8396 H    0  0  0  0  0  0  0  0  0  0  0  0
    5.0940   10.5170   28.0693 H    0  0  0  0  0  0  0  0  0  0  0  0
    5.4995    8.5844   26.5516 H    0  0  0  0  0  0  0  0  0  0  0  0
    7.1920    8.7449   24.7845 H    0  0  0  0  0  0  0  0  0  0  0  0
  4  5  1  0  0  0  0
  3  4  1  0  0  0  0
  2  3  1  0  0  0  0
  1  2  2  0  0  0  0
 22  3  1  0  0  0  0
 23  4  1  0  0  0  0
 24  4  1  0  0  0  0
 25  5  1  0  0  0  0
  6  2  1  0  0  0  0
  7  6  1  0  0  0  0
 26  6  1  0  0  0  0
 27  7  1  0  0  0  0
 28  7  1  0  0  0  0
  8  7  1  0  0  0  0
 29  8  1  0  0  0  0
 30  8  1  0  0  0  0
  9  8  1  0  0  0  0
 31  9  1  0  0  0  0
 32  9  1  0  0  0  0
 10  9  1  0  0  0  0
 11 10  1  0  0  0  0
 12 11  2  0  0  0  0
 13 11  1  0  0  0  0
 33 13  1  0  0  0  0
 34 13  1  0  0  0  0
 14 13  1  0  0  0  0
 15 14  1  0  0  0  0
 21 15  2  0  0  0  0
 16 15  1  0  0  0  0
 17 16  1  0  0  0  0
 35 17  1  0  0  0  0
 36 17  1  0  0  0  0
 37 17  1  0  0  0  0
 18 14  2  0  0  0  0
 38 18  1  0  0  0  0
 19 18  1  0  0  0  0
 39 19  1  0  0  0  0
 20 19  2  0  0  0  0
 40 20  1  0  0  0  0
 41 21  1  0  0  0  0
  6  5  1  0  0  0  0
 10  5  1  0  0  0  0
 21 20  1  0  0  0  0
M  END
>  <FittedScore>
-22.37

$$$$
