A71EV2A-x3858b_lowest-energy
  FITTED

 40 41     0  0  0  0  0  0  0999 V2000
    9.7375   16.9403   19.2700 O    0  0  0  0  0  0  0  0  0  0  0  0
   10.2534   15.9686   19.7877 C    0  0  0  0  0  0  0  0  0  0  0  0
   10.7294   14.9518   19.0291 N    0  0  0  0  0  0  0  0  0  0  0  0
   10.2547   15.7878   21.2996 C    0  0  0  0  0  0  0  0  0  0  0  0
   11.7000   15.8179   21.8595 C    0  0  0  0  0  0  0  0  0  0  0  0
   11.6887   15.5577   23.3747 C    0  0  0  0  0  0  0  0  0  0  0  0
   10.9508   14.2379   23.7097 C    0  0  0  0  0  0  0  0  0  0  0  0
    9.4300   14.5367   21.7369 C    0  0  0  0  0  0  0  0  0  0  0  0
    9.5489   14.0952   23.1633 N    0  0  0  0  0  0  0  0  0  0  0  0
    8.5408   13.3535   23.7520 C    0  0  0  0  0  0  0  0  0  0  0  0
    7.5290   13.0358   23.1347 O    0  0  0  0  0  0  0  0  0  0  0  0
    8.7480   12.8351   25.1802 C    0  0  0  0  0  0  0  0  0  0  0  0
    7.7801   11.7129   25.5720 C    0  0  0  0  0  0  0  0  0  0  0  0
    7.9724   10.4108   25.0421 C    0  0  0  0  0  0  0  0  0  0  0  0
    9.0591   10.1812   24.1925 O    0  0  0  0  0  0  0  0  0  0  0  0
    9.3729    8.9441   23.5087 C    0  0  0  0  0  0  0  0  0  0  0  0
    6.6967   11.9575   26.4576 C    0  0  0  0  0  0  0  0  0  0  0  0
    6.3961   13.4995   27.2114 CL   0  0  0  0  0  0  0  0  0  0  0  0
    5.8330   10.9116   26.8075 C    0  0  0  0  0  0  0  0  0  0  0  0
    6.0171    9.6332   26.2786 C    0  0  0  0  0  0  0  0  0  0  0  0
    7.0822    9.3841   25.4037 C    0  0  0  0  0  0  0  0  0  0  0  0
   10.6857   15.0149   18.0231 H    0  0  0  0  0  0  0  0  0  0  0  0
   10.9599   14.0519   19.4581 H    0  0  0  0  0  0  0  0  0  0  0  0
    9.7409   16.6528   21.7329 H    0  0  0  0  0  0  0  0  0  0  0  0
   12.3229   15.0645   21.3698 H    0  0  0  0  0  0  0  0  0  0  0  0
   12.1538   16.7923   21.6553 H    0  0  0  0  0  0  0  0  0  0  0  0
   12.7202   15.5058   23.7313 H    0  0  0  0  0  0  0  0  0  0  0  0
   11.2051   16.3920   23.8900 H    0  0  0  0  0  0  0  0  0  0  0  0
   11.5446   13.3903   23.3504 H    0  0  0  0  0  0  0  0  0  0  0  0
   10.9742   14.1852   24.7977 H    0  0  0  0  0  0  0  0  0  0  0  0
    9.7001   13.6665   21.1313 H    0  0  0  0  0  0  0  0  0  0  0  0
    8.3882   14.7594   21.4854 H    0  0  0  0  0  0  0  0  0  0  0  0
    9.7550   12.4330   25.3045 H    0  0  0  0  0  0  0  0  0  0  0  0
    8.7126   13.6776   25.8750 H    0  0  0  0  0  0  0  0  0  0  0  0
   10.3080    9.0740   22.9585 H    0  0  0  0  0  0  0  0  0  0  0  0
    8.5740    8.6882   22.8104 H    0  0  0  0  0  0  0  0  0  0  0  0
    9.5136    8.1284   24.2224 H    0  0  0  0  0  0  0  0  0  0  0  0
    5.0201   11.0906   27.5080 H    0  0  0  0  0  0  0  0  0  0  0  0
    5.3474    8.8240   26.5594 H    0  0  0  0  0  0  0  0  0  0  0  0
    7.2087    8.3746   25.0264 H    0  0  0  0  0  0  0  0  0  0  0  0
  9 10  1  0  0  0  0
  7  9  1  0  0  0  0
  6  7  1  0  0  0  0
  5  6  1  0  0  0  0
  4  5  1  0  0  0  0
  2  4  1  0  0  0  0
  1  2  2  0  0  0  0
  3  2  1  0  0  0  0
 22  3  1  0  0  0  0
 23  3  1  0  0  0  0
 24  4  1  0  0  0  0
 25  5  1  0  0  0  0
 26  5  1  0  0  0  0
 27  6  1  0  0  0  0
 28  6  1  0  0  0  0
 29  7  1  0  0  0  0
 30  7  1  0  0  0  0
  8  4  1  0  0  0  0
 31  8  1  0  0  0  0
 32  8  1  0  0  0  0
 11 10  2  0  0  0  0
 12 10  1  0  0  0  0
 33 12  1  0  0  0  0
 34 12  1  0  0  0  0
 13 12  1  0  0  0  0
 14 13  1  0  0  0  0
 21 14  2  0  0  0  0
 15 14  1  0  0  0  0
 16 15  1  0  0  0  0
 35 16  1  0  0  0  0
 36 16  1  0  0  0  0
 37 16  1  0  0  0  0
 17 13  2  0  0  0  0
 18 17  1  0  0  0  0
 19 17  1  0  0  0  0
 38 19  1  0  0  0  0
 20 19  2  0  0  0  0
 39 20  1  0  0  0  0
 40 21  1  0  0  0  0
  9  8  1  0  0  0  0
 21 20  1  0  0  0  0
M  END
>  <FittedScore>
-34.49

$$$$
