A71EV2A-x3858b_best-RMSD
  FITTED

 40 41     0  0  0  0  0  0  0999 V2000
    9.8512   17.0364   19.2340 O    0  0  0  0  0  0  0  0  0  0  0  0
   10.2523   16.0183   19.7579 C    0  0  0  0  0  0  0  0  0  0  0  0
   10.6623   14.9682   19.0078 N    0  0  0  0  0  0  0  0  0  0  0  0
   10.2470   15.8450   21.2732 C    0  0  0  0  0  0  0  0  0  0  0  0
   11.6907   15.9023   21.8307 C    0  0  0  0  0  0  0  0  0  0  0  0
   11.6818   15.6655   23.3525 C    0  0  0  0  0  0  0  0  0  0  0  0
   10.9690   14.3341   23.7074 C    0  0  0  0  0  0  0  0  0  0  0  0
    9.4320   14.5911   21.7318 C    0  0  0  0  0  0  0  0  0  0  0  0
    9.5772   14.1355   23.1535 N    0  0  0  0  0  0  0  0  0  0  0  0
    8.6015   13.3407   23.7329 C    0  0  0  0  0  0  0  0  0  0  0  0
    7.5839   13.0249   23.1226 O    0  0  0  0  0  0  0  0  0  0  0  0
    8.8595   12.7481   25.1255 C    0  0  0  0  0  0  0  0  0  0  0  0
    7.8258   11.6953   25.5560 C    0  0  0  0  0  0  0  0  0  0  0  0
    7.9792   10.3531   25.1202 C    0  0  0  0  0  0  0  0  0  0  0  0
    9.0709   10.0240   24.3112 O    0  0  0  0  0  0  0  0  0  0  0  0
    9.2668    8.7834   23.5848 C    0  0  0  0  0  0  0  0  0  0  0  0
    6.7073   12.0491   26.3529 C    0  0  0  0  0  0  0  0  0  0  0  0
    6.3754   13.6745   26.8733 CL   0  0  0  0  0  0  0  0  0  0  0  0
    5.7849   11.0686   26.7396 C    0  0  0  0  0  0  0  0  0  0  0  0
    5.9529    9.7413   26.3374 C    0  0  0  0  0  0  0  0  0  0  0  0
    7.0352    9.3894   25.5234 C    0  0  0  0  0  0  0  0  0  0  0  0
   10.6725   15.0467   18.0005 H    0  0  0  0  0  0  0  0  0  0  0  0
   10.8544   14.0613   19.4322 H    0  0  0  0  0  0  0  0  0  0  0  0
    9.7232   16.7088   21.7016 H    0  0  0  0  0  0  0  0  0  0  0  0
   12.3305   15.1548   21.3531 H    0  0  0  0  0  0  0  0  0  0  0  0
   12.1315   16.8813   21.6188 H    0  0  0  0  0  0  0  0  0  0  0  0
   12.7146   15.6393   23.7173 H    0  0  0  0  0  0  0  0  0  0  0  0
   11.1851   16.5007   23.8604 H    0  0  0  0  0  0  0  0  0  0  0  0
   11.5926   13.4980   23.3752 H    0  0  0  0  0  0  0  0  0  0  0  0
   10.9731   14.3109   24.7981 H    0  0  0  0  0  0  0  0  0  0  0  0
    9.6776   13.7167   21.1234 H    0  0  0  0  0  0  0  0  0  0  0  0
    8.3833   14.8184   21.5127 H    0  0  0  0  0  0  0  0  0  0  0  0
    9.8506   12.2880   25.1633 H    0  0  0  0  0  0  0  0  0  0  0  0
    8.9273   13.5560   25.8561 H    0  0  0  0  0  0  0  0  0  0  0  0
    9.3629    7.9574   24.2923 H    0  0  0  0  0  0  0  0  0  0  0  0
   10.1944    8.8393   23.0125 H    0  0  0  0  0  0  0  0  0  0  0  0
    8.4402    8.5868   22.9020 H    0  0  0  0  0  0  0  0  0  0  0  0
    4.9243   11.3362   27.3436 H    0  0  0  0  0  0  0  0  0  0  0  0
    5.2374    8.9832   26.6480 H    0  0  0  0  0  0  0  0  0  0  0  0
    7.1323    8.3472   25.2294 H    0  0  0  0  0  0  0  0  0  0  0  0
  9 10  1  0  0  0  0
  7  9  1  0  0  0  0
  6  7  1  0  0  0  0
  5  6  1  0  0  0  0
  4  5  1  0  0  0  0
  2  4  1  0  0  0  0
  1  2  2  0  0  0  0
  3  2  1  0  0  0  0
 22  3  1  0  0  0  0
 23  3  1  0  0  0  0
 24  4  1  0  0  0  0
 25  5  1  0  0  0  0
 26  5  1  0  0  0  0
 27  6  1  0  0  0  0
 28  6  1  0  0  0  0
 29  7  1  0  0  0  0
 30  7  1  0  0  0  0
  8  4  1  0  0  0  0
 31  8  1  0  0  0  0
 32  8  1  0  0  0  0
 11 10  2  0  0  0  0
 12 10  1  0  0  0  0
 33 12  1  0  0  0  0
 34 12  1  0  0  0  0
 13 12  1  0  0  0  0
 14 13  1  0  0  0  0
 21 14  2  0  0  0  0
 15 14  1  0  0  0  0
 16 15  1  0  0  0  0
 35 16  1  0  0  0  0
 36 16  1  0  0  0  0
 37 16  1  0  0  0  0
 17 13  2  0  0  0  0
 18 17  1  0  0  0  0
 19 17  1  0  0  0  0
 38 19  1  0  0  0  0
 20 19  2  0  0  0  0
 39 20  1  0  0  0  0
 40 21  1  0  0  0  0
  9  8  1  0  0  0  0
 21 20  1  0  0  0  0
M  END
>  <FittedScore>
-34.18

$$$$
