A71EV2A-x4547a_best-RMSD
  FITTED

 39 41     0  0  0  0  0  0  0999 V2000
   10.6630   14.6738   25.3320 O    0  0  0  0  0  0  0  0  0  0  0  0
   10.6331   14.8381   24.1249 C    0  0  0  0  0  0  0  0  0  0  0  0
   11.9334   15.2210   23.4043 C    0  0  0  0  0  0  0  0  0  0  0  0
   11.9056   15.1279   21.8529 C    0  0  0  0  0  0  0  0  0  0  0  0
   10.5604   15.6610   21.3085 C    0  0  0  0  0  0  0  0  0  0  0  0
   10.4338   15.7720   19.7910 C    0  0  0  0  0  0  0  0  0  0  0  0
    9.6961   16.6047   19.3187 O    0  0  0  0  0  0  0  0  0  0  0  0
   10.8891   14.7839   18.9956 N    0  0  0  0  0  0  0  0  0  0  0  0
    9.3847   14.8610   21.9183 C    0  0  0  0  0  0  0  0  0  0  0  0
    9.4676   14.7012   23.3977 N    0  0  0  0  0  0  0  0  0  0  0  0
    8.1915   14.2107   23.9977 C    0  0  0  0  0  0  0  0  0  0  0  0
    8.1720   12.6989   24.1580 C    0  0  0  0  0  0  0  0  0  0  0  0
    8.9089   11.8250   23.5340 N    0  0  0  0  0  0  0  0  0  0  0  0
    7.2509   11.9717   25.0476 C    0  0  0  0  0  0  0  0  0  0  0  0
    7.5080   10.6367   24.8383 C    0  0  0  0  0  0  0  0  0  0  0  0
    8.5327   10.5774   23.9418 N    0  0  0  0  0  0  0  0  0  0  0  0
    9.2273    9.3899   23.4385 C    0  0  0  0  0  0  0  0  0  0  0  0
    6.7596    9.6448   25.4850 C    0  0  0  0  0  0  0  0  0  0  0  0
    5.7579   10.0497   26.3897 C    0  0  0  0  0  0  0  0  0  0  0  0
    5.5114   11.4216   26.6168 C    0  0  0  0  0  0  0  0  0  0  0  0
    6.2573   12.4033   25.9359 C    0  0  0  0  0  0  0  0  0  0  0  0
   12.1990   16.2400   23.6975 H    0  0  0  0  0  0  0  0  0  0  0  0
   12.7357   14.5740   23.7710 H    0  0  0  0  0  0  0  0  0  0  0  0
   12.7370   15.7062   21.4383 H    0  0  0  0  0  0  0  0  0  0  0  0
   12.0552   14.0864   21.5521 H    0  0  0  0  0  0  0  0  0  0  0  0
   10.4677   16.6885   21.6851 H    0  0  0  0  0  0  0  0  0  0  0  0
   10.7827   14.8713   17.9894 H    0  0  0  0  0  0  0  0  0  0  0  0
   11.2018   13.9049   19.3937 H    0  0  0  0  0  0  0  0  0  0  0  0
    8.4615   15.3803   21.6428 H    0  0  0  0  0  0  0  0  0  0  0  0
    9.3413   13.8710   21.4551 H    0  0  0  0  0  0  0  0  0  0  0  0
    8.0470   14.6859   24.9710 H    0  0  0  0  0  0  0  0  0  0  0  0
    7.3170   14.5119   23.4149 H    0  0  0  0  0  0  0  0  0  0  0  0
    9.9083    8.9913   24.1941 H    0  0  0  0  0  0  0  0  0  0  0  0
    9.8210    9.6040   22.5449 H    0  0  0  0  0  0  0  0  0  0  0  0
    8.5271    8.5947   23.1723 H    0  0  0  0  0  0  0  0  0  0  0  0
    6.9470    8.5888   25.3044 H    0  0  0  0  0  0  0  0  0  0  0  0
    5.1686    9.2995   26.9128 H    0  0  0  0  0  0  0  0  0  0  0  0
    4.7355   11.7264   27.3123 H    0  0  0  0  0  0  0  0  0  0  0  0
    6.0675   13.4635   26.0908 H    0  0  0  0  0  0  0  0  0  0  0  0
 12 13  2  0  0  0  0
 11 12  1  0  0  0  0
 10 11  1  0  0  0  0
  9 10  1  0  0  0  0
  5  9  1  0  0  0  0
  6  5  1  0  0  0  0
  4  5  1  0  0  0  0
  3  4  1  0  0  0  0
  2  3  1  0  0  0  0
  1  2  2  0  0  0  0
 22  3  1  0  0  0  0
 23  3  1  0  0  0  0
 24  4  1  0  0  0  0
 25  4  1  0  0  0  0
 26  5  1  0  0  0  0
  7  6  2  0  0  0  0
  8  6  1  0  0  0  0
 27  8  1  0  0  0  0
 28  8  1  0  0  0  0
 29  9  1  0  0  0  0
 30  9  1  0  0  0  0
 31 11  1  0  0  0  0
 32 11  1  0  0  0  0
 14 12  1  0  0  0  0
 21 14  2  0  0  0  0
 15 14  1  0  0  0  0
 16 13  1  0  0  0  0
 17 16  1  0  0  0  0
 33 17  1  0  0  0  0
 34 17  1  0  0  0  0
 35 17  1  0  0  0  0
 18 15  2  0  0  0  0
 36 18  1  0  0  0  0
 19 18  1  0  0  0  0
 37 19  1  0  0  0  0
 20 19  2  0  0  0  0
 38 20  1  0  0  0  0
 39 21  1  0  0  0  0
 10  2  1  0  0  0  0
 16 15  1  0  0  0  0
 21 20  1  0  0  0  0
M  END
>  <FittedScore>
-28.98

$$$$
