A71EV2A-x4547a_lowest-energy
  FITTED

 39 41     0  0  0  0  0  0  0999 V2000
   11.6491   14.8694   25.1752 O    0  0  0  0  0  0  0  0  0  0  0  0
   11.3274   15.0196   24.0104 C    0  0  0  0  0  0  0  0  0  0  0  0
   12.2635   15.8209   23.1027 C    0  0  0  0  0  0  0  0  0  0  0  0
   12.0582   15.5813   21.5918 C    0  0  0  0  0  0  0  0  0  0  0  0
   10.5551   15.7104   21.2544 C    0  0  0  0  0  0  0  0  0  0  0  0
   10.2571   15.7071   19.7619 C    0  0  0  0  0  0  0  0  0  0  0  0
    9.4409   16.4669   19.2966 O    0  0  0  0  0  0  0  0  0  0  0  0
   10.8467   14.7964   18.9623 N    0  0  0  0  0  0  0  0  0  0  0  0
    9.7171   14.6942   22.0741 C    0  0  0  0  0  0  0  0  0  0  0  0
   10.0899   14.6446   23.5268 N    0  0  0  0  0  0  0  0  0  0  0  0
    8.9819   14.1434   24.4003 C    0  0  0  0  0  0  0  0  0  0  0  0
    8.7487   12.6403   24.3339 C    0  0  0  0  0  0  0  0  0  0  0  0
    9.4498   11.7502   23.6952 N    0  0  0  0  0  0  0  0  0  0  0  0
    7.6497   11.9426   25.0297 C    0  0  0  0  0  0  0  0  0  0  0  0
    7.7949   10.6086   24.7182 C    0  0  0  0  0  0  0  0  0  0  0  0
    8.8835   10.5268   23.9004 N    0  0  0  0  0  0  0  0  0  0  0  0
    9.5013    9.3229   23.3386 C    0  0  0  0  0  0  0  0  0  0  0  0
    6.9315    9.6394   25.2389 C    0  0  0  0  0  0  0  0  0  0  0  0
    5.9190   10.0585   26.1227 C    0  0  0  0  0  0  0  0  0  0  0  0
    5.7675   11.4265   26.4439 C    0  0  0  0  0  0  0  0  0  0  0  0
    6.6375   12.3874   25.8932 C    0  0  0  0  0  0  0  0  0  0  0  0
   12.1381   16.8849   23.3211 H    0  0  0  0  0  0  0  0  0  0  0  0
   13.2987   15.5786   23.3516 H    0  0  0  0  0  0  0  0  0  0  0  0
   12.6416   16.3089   21.0211 H    0  0  0  0  0  0  0  0  0  0  0  0
   12.4327   14.5871   21.3256 H    0  0  0  0  0  0  0  0  0  0  0  0
   10.2425   16.7019   21.6028 H    0  0  0  0  0  0  0  0  0  0  0  0
   10.7025   14.8480   17.9582 H    0  0  0  0  0  0  0  0  0  0  0  0
   11.3009   13.9847   19.3717 H    0  0  0  0  0  0  0  0  0  0  0  0
    8.6580   14.9426   21.9483 H    0  0  0  0  0  0  0  0  0  0  0  0
    9.8497   13.6982   21.6437 H    0  0  0  0  0  0  0  0  0  0  0  0
    9.1560   14.4154   25.4436 H    0  0  0  0  0  0  0  0  0  0  0  0
    8.0519   14.6595   24.1479 H    0  0  0  0  0  0  0  0  0  0  0  0
    8.8354    8.8422   22.6182 H    0  0  0  0  0  0  0  0  0  0  0  0
    9.7333    8.5900   24.1117 H    0  0  0  0  0  0  0  0  0  0  0  0
   10.4524    9.5372   22.8355 H    0  0  0  0  0  0  0  0  0  0  0  0
    7.0472    8.5859   24.9926 H    0  0  0  0  0  0  0  0  0  0  0  0
    5.2457    9.3238   26.5570 H    0  0  0  0  0  0  0  0  0  0  0  0
    4.9767   11.7364   27.1223 H    0  0  0  0  0  0  0  0  0  0  0  0
    6.5311   13.4421   26.1373 H    0  0  0  0  0  0  0  0  0  0  0  0
 12 13  2  0  0  0  0
 11 12  1  0  0  0  0
 10 11  1  0  0  0  0
  9 10  1  0  0  0  0
  5  9  1  0  0  0  0
  6  5  1  0  0  0  0
  4  5  1  0  0  0  0
  3  4  1  0  0  0  0
  2  3  1  0  0  0  0
  1  2  2  0  0  0  0
 22  3  1  0  0  0  0
 23  3  1  0  0  0  0
 24  4  1  0  0  0  0
 25  4  1  0  0  0  0
 26  5  1  0  0  0  0
  7  6  2  0  0  0  0
  8  6  1  0  0  0  0
 27  8  1  0  0  0  0
 28  8  1  0  0  0  0
 29  9  1  0  0  0  0
 30  9  1  0  0  0  0
 31 11  1  0  0  0  0
 32 11  1  0  0  0  0
 14 12  1  0  0  0  0
 21 14  2  0  0  0  0
 15 14  1  0  0  0  0
 16 13  1  0  0  0  0
 17 16  1  0  0  0  0
 33 17  1  0  0  0  0
 34 17  1  0  0  0  0
 35 17  1  0  0  0  0
 18 15  2  0  0  0  0
 36 18  1  0  0  0  0
 19 18  1  0  0  0  0
 37 19  1  0  0  0  0
 20 19  2  0  0  0  0
 38 20  1  0  0  0  0
 39 21  1  0  0  0  0
 10  2  1  0  0  0  0
 16 15  1  0  0  0  0
 21 20  1  0  0  0  0
M  END
>  <FittedScore>
-29.05

$$$$
