A71EV2A-x4334b_lowest-energy
  FITTED

 40 41     0  0  0  0  0  0  0999 V2000
    9.9871   16.9529   19.0742 O    0  0  0  0  0  0  0  0  0  0  0  0
   10.4404   15.9014   19.4874 C    0  0  0  0  0  0  0  0  0  0  0  0
   10.7717   14.9097   18.6394 N    0  0  0  0  0  0  0  0  0  0  0  0
   10.4840   15.5143   20.9595 C    0  0  0  0  0  0  0  0  0  0  0  0
   11.5416   16.3400   21.7539 C    0  0  0  0  0  0  0  0  0  0  0  0
   11.5345   15.9373   23.2571 C    0  0  0  0  0  0  0  0  0  0  0  0
   10.0928   15.9087   23.8452 C    0  0  0  0  0  0  0  0  0  0  0  0
    9.0801   15.6153   21.6293 C    0  0  0  0  0  0  0  0  0  0  0  0
    9.1444   15.0759   23.0214 N    0  0  0  0  0  0  0  0  0  0  0  0
    8.5901   13.8617   23.3647 C    0  0  0  0  0  0  0  0  0  0  0  0
    7.7106   13.3507   22.6885 O    0  0  0  0  0  0  0  0  0  0  0  0
    9.2552   13.0608   24.4940 C    0  0  0  0  0  0  0  0  0  0  0  0
    8.7418   11.6307   24.6047 C    0  0  0  0  0  0  0  0  0  0  0  0
    9.3344   10.5966   23.8548 C    0  0  0  0  0  0  0  0  0  0  0  0
    8.8266    9.2957   23.9299 C    0  0  0  0  0  0  0  0  0  0  0  0
    7.7332    9.0232   24.7616 C    0  0  0  0  0  0  0  0  0  0  0  0
    7.6407   11.3509   25.4305 C    0  0  0  0  0  0  0  0  0  0  0  0
    7.1407   10.0427   25.5206 C    0  0  0  0  0  0  0  0  0  0  0  0
    5.7735    9.6177   26.5665 S    0  0  0  0  0  0  0  0  0  0  0  0
    5.3378   11.0868   27.5500 C    0  0  0  0  0  0  0  0  0  0  0  0
   10.9625   13.9717   18.9910 H    0  0  0  0  0  0  0  0  0  0  0  0
   10.7002   15.0578   17.6423 H    0  0  0  0  0  0  0  0  0  0  0  0
   10.7903   14.4621   21.0460 H    0  0  0  0  0  0  0  0  0  0  0  0
   12.5361   16.1634   21.3349 H    0  0  0  0  0  0  0  0  0  0  0  0
   11.3431   17.4121   21.6581 H    0  0  0  0  0  0  0  0  0  0  0  0
   11.9890   14.9484   23.3682 H    0  0  0  0  0  0  0  0  0  0  0  0
   12.1537   16.6353   23.8265 H    0  0  0  0  0  0  0  0  0  0  0  0
   10.1388   15.5975   24.8894 H    0  0  0  0  0  0  0  0  0  0  0  0
    9.7132   16.9353   23.8911 H    0  0  0  0  0  0  0  0  0  0  0  0
    8.3543   15.0852   21.0065 H    0  0  0  0  0  0  0  0  0  0  0  0
    8.7285   16.6524   21.6478 H    0  0  0  0  0  0  0  0  0  0  0  0
   10.3358   13.0326   24.3267 H    0  0  0  0  0  0  0  0  0  0  0  0
    9.1052   13.5648   25.4534 H    0  0  0  0  0  0  0  0  0  0  0  0
   10.1788   10.8005   23.2005 H    0  0  0  0  0  0  0  0  0  0  0  0
    9.2734    8.5008   23.3401 H    0  0  0  0  0  0  0  0  0  0  0  0
    7.3471    8.0062   24.8147 H    0  0  0  0  0  0  0  0  0  0  0  0
    7.1724   12.1618   25.9807 H    0  0  0  0  0  0  0  0  0  0  0  0
    4.9612   11.8766   26.8986 H    0  0  0  0  0  0  0  0  0  0  0  0
    6.2169   11.4307   28.1002 H    0  0  0  0  0  0  0  0  0  0  0  0
    4.5526   10.8176   28.2585 H    0  0  0  0  0  0  0  0  0  0  0  0
  9 10  1  0  0  0  0
  7  9  1  0  0  0  0
  6  7  1  0  0  0  0
  5  6  1  0  0  0  0
  4  5  1  0  0  0  0
  2  4  1  0  0  0  0
  1  2  2  0  0  0  0
  3  2  1  0  0  0  0
 21  3  1  0  0  0  0
 22  3  1  0  0  0  0
 23  4  1  0  0  0  0
 24  5  1  0  0  0  0
 25  5  1  0  0  0  0
 26  6  1  0  0  0  0
 27  6  1  0  0  0  0
 28  7  1  0  0  0  0
 29  7  1  0  0  0  0
  8  4  1  0  0  0  0
 30  8  1  0  0  0  0
 31  8  1  0  0  0  0
 11 10  2  0  0  0  0
 12 10  1  0  0  0  0
 32 12  1  0  0  0  0
 33 12  1  0  0  0  0
 13 12  1  0  0  0  0
 14 13  1  0  0  0  0
 34 14  1  0  0  0  0
 15 14  2  0  0  0  0
 35 15  1  0  0  0  0
 16 15  1  0  0  0  0
 36 16  1  0  0  0  0
 17 13  2  0  0  0  0
 37 17  1  0  0  0  0
 18 16  2  0  0  0  0
 19 18  1  0  0  0  0
 20 19  1  0  0  0  0
 38 20  1  0  0  0  0
 39 20  1  0  0  0  0
 40 20  1  0  0  0  0
  9  8  1  0  0  0  0
 18 17  1  0  0  0  0
M  END
>  <FittedScore>
-33.86

$$$$
