A71EV2A-x4959a_best-RMSD
  FITTED

 43 45     0  0  0  0  0  0  0999 V2000
    7.2740   13.2749   22.7519 O    0  0  0  0  0  0  0  0  0  0  0  0
    8.0511   13.8104   23.5295 C    0  0  0  0  0  0  0  0  0  0  0  0
    8.7586   14.9537   23.2025 N    0  0  0  0  0  0  0  0  0  0  0  0
    9.7833   15.6748   24.0424 C    0  0  0  0  0  0  0  0  0  0  0  0
   11.2238   15.5851   23.4523 C    0  0  0  0  0  0  0  0  0  0  0  0
   11.2719   16.0304   21.9622 C    0  0  0  0  0  0  0  0  0  0  0  0
    8.7587   15.5206   21.8158 C    0  0  0  0  0  0  0  0  0  0  0  0
   10.1554   15.3350   21.1303 C    0  0  0  0  0  0  0  0  0  0  0  0
   10.1891   15.8022   19.6690 C    0  0  0  0  0  0  0  0  0  0  0  0
    9.7920   16.8870   19.2808 O    0  0  0  0  0  0  0  0  0  0  0  0
   10.6177   14.8765   18.7870 N    0  0  0  0  0  0  0  0  0  0  0  0
    8.5452   13.1241   24.5958 N    0  0  0  0  0  0  0  0  0  0  0  0
    8.4198   11.7139   24.7681 C    0  0  0  0  0  0  0  0  0  0  0  0
    7.2270   11.1157   25.2270 C    0  0  0  0  0  0  0  0  0  0  0  0
    5.8228   12.0957   25.7582 S    0  0  0  0  0  0  0  0  0  0  0  0
    5.4551   11.4472   27.4194 C    0  0  0  0  0  0  0  0  0  0  0  0
    4.0414   11.5371   27.9280 C    0  0  0  0  0  0  0  0  0  0  0  0
    4.6762   10.1971   27.7177 C    0  0  0  0  0  0  0  0  0  0  0  0
    7.1343    9.7157   25.2086 C    0  0  0  0  0  0  0  0  0  0  0  0
    8.2116    8.9331   24.7641 C    0  0  0  0  0  0  0  0  0  0  0  0
    9.4044    9.5354   24.3591 C    0  0  0  0  0  0  0  0  0  0  0  0
    9.5137   10.9303   24.3676 C    0  0  0  0  0  0  0  0  0  0  0  0
    9.4963   16.7286   24.1141 H    0  0  0  0  0  0  0  0  0  0  0  0
    9.8167   15.3344   25.0809 H    0  0  0  0  0  0  0  0  0  0  0  0
   11.9045   16.2095   24.0396 H    0  0  0  0  0  0  0  0  0  0  0  0
   11.5862   14.5576   23.5394 H    0  0  0  0  0  0  0  0  0  0  0  0
   11.1705   17.1199   21.9015 H    0  0  0  0  0  0  0  0  0  0  0  0
   12.2501   15.7831   21.5448 H    0  0  0  0  0  0  0  0  0  0  0  0
    8.4902   16.5844   21.8563 H    0  0  0  0  0  0  0  0  0  0  0  0
    8.0000   15.0697   21.1718 H    0  0  0  0  0  0  0  0  0  0  0  0
   10.3640   14.2561   21.1640 H    0  0  0  0  0  0  0  0  0  0  0  0
   10.5797   15.0834   17.7977 H    0  0  0  0  0  0  0  0  0  0  0  0
   10.8014   13.9227   19.0930 H    0  0  0  0  0  0  0  0  0  0  0  0
    9.3940   13.4909   24.9938 H    0  0  0  0  0  0  0  0  0  0  0  0
    6.2412   11.6965   28.1255 H    0  0  0  0  0  0  0  0  0  0  0  0
    3.8846   11.8624   28.9525 H    0  0  0  0  0  0  0  0  0  0  0  0
    3.2538   11.8299   27.2368 H    0  0  0  0  0  0  0  0  0  0  0  0
    4.9495    9.6200   28.5972 H    0  0  0  0  0  0  0  0  0  0  0  0
    4.3069    9.6015   26.8886 H    0  0  0  0  0  0  0  0  0  0  0  0
    6.2160    9.2208   25.4986 H    0  0  0  0  0  0  0  0  0  0  0  0
    8.1234    7.8484   24.7466 H    0  0  0  0  0  0  0  0  0  0  0  0
   10.2466    8.9305   24.0371 H    0  0  0  0  0  0  0  0  0  0  0  0
   10.4295   11.4028   24.0219 H    0  0  0  0  0  0  0  0  0  0  0  0
  2 12  1  0  0  0  0
  3  2  1  0  0  0  0
  4  3  1  0  0  0  0
  1  2  2  0  0  0  0
 23  4  1  0  0  0  0
 24  4  1  0  0  0  0
  5  4  1  0  0  0  0
 25  5  1  0  0  0  0
 26  5  1  0  0  0  0
  6  5  1  0  0  0  0
 27  6  1  0  0  0  0
 28  6  1  0  0  0  0
  7  3  1  0  0  0  0
 29  7  1  0  0  0  0
 30  7  1  0  0  0  0
  8  6  1  0  0  0  0
  9  8  1  0  0  0  0
 31  8  1  0  0  0  0
 10  9  2  0  0  0  0
 11  9  1  0  0  0  0
 32 11  1  0  0  0  0
 33 11  1  0  0  0  0
 34 12  1  0  0  0  0
 13 12  1  0  0  0  0
 22 13  1  0  0  0  0
 14 13  2  0  0  0  0
 15 14  1  0  0  0  0
 16 15  1  0  0  0  0
 18 16  1  0  0  0  0
 35 16  1  0  0  0  0
 17 16  1  0  0  0  0
 36 17  1  0  0  0  0
 37 17  1  0  0  0  0
 38 18  1  0  0  0  0
 39 18  1  0  0  0  0
 19 14  1  0  0  0  0
 40 19  1  0  0  0  0
 20 19  2  0  0  0  0
 41 20  1  0  0  0  0
 21 20  1  0  0  0  0
 42 21  1  0  0  0  0
 43 22  1  0  0  0  0
  8  7  1  0  0  0  0
 18 17  1  0  0  0  0
 22 21  2  0  0  0  0
M  END
>  <FittedScore>
-34.08

$$$$
