A71EV2A-x7038a_best-RMSD
  FITTED

 48 50     0  0  0  0  0  0  0999 V2000
    9.0829    8.8268   23.3934 C    0  0  0  0  0  0  0  0  0  0  0  0
    9.1059   10.6071   23.7664 S    0  0  0  0  0  0  0  0  0  0  0  0
    7.7186   10.9678   24.8556 C    0  0  0  0  0  0  0  0  0  0  0  0
    7.2104    9.9528   25.6879 C    0  0  0  0  0  0  0  0  0  0  0  0
    6.1950   10.2141   26.6136 C    0  0  0  0  0  0  0  0  0  0  0  0
    5.6592   11.4994   26.7100 C    0  0  0  0  0  0  0  0  0  0  0  0
    6.1282   12.5146   25.8725 C    0  0  0  0  0  0  0  0  0  0  0  0
    7.1525   12.2761   24.9219 C    0  0  0  0  0  0  0  0  0  0  0  0
    7.6432   13.4014   23.9669 C    0  0  0  0  0  0  0  0  0  0  0  0
    9.0049   14.0103   24.3614 C    0  0  0  0  0  0  0  0  0  0  0  0
    9.3408   14.0655   25.5302 O    0  0  0  0  0  0  0  0  0  0  0  0
    9.7680   14.6037   23.3840 N    0  0  0  0  0  0  0  0  0  0  0  0
   10.9716   15.4318   23.6247 C    0  0  0  0  0  0  0  0  0  0  0  0
   11.3858   16.0819   22.2877 C    0  0  0  0  0  0  0  0  0  0  0  0
   10.7814   15.1251   21.2495 C    0  0  0  0  0  0  0  0  0  0  0  0
   10.5376   15.6792   19.8525 C    0  0  0  0  0  0  0  0  0  0  0  0
   10.7895   14.8174   18.8499 N    0  0  0  0  0  0  0  0  0  0  0  0
    9.8782   16.6798   19.6342 O    0  0  0  0  0  0  0  0  0  0  0  0
    9.5056   14.6111   21.9314 C    0  0  0  0  0  0  0  0  0  0  0  0
    6.6138   14.4385   23.6558 N    0  0  0  0  0  0  0  0  0  0  0  0
    6.5969   15.7085   24.4079 C    0  0  0  0  0  0  0  0  0  0  0  0
    5.2831   16.3808   23.9934 C    0  0  0  0  0  0  0  0  0  0  0  0
    4.8082   15.5963   22.7469 C    0  0  0  0  0  0  0  0  0  0  0  0
    5.6615   14.3476   22.7069 C    0  0  0  0  0  0  0  0  0  0  0  0
    5.5397   13.4343   21.9064 O    0  0  0  0  0  0  0  0  0  0  0  0
    8.0917    8.5285   23.0457 H    0  0  0  0  0  0  0  0  0  0  0  0
    9.3599    8.2548   24.2790 H    0  0  0  0  0  0  0  0  0  0  0  0
    9.8183    8.6234   22.6146 H    0  0  0  0  0  0  0  0  0  0  0  0
    7.6131    8.9462   25.6640 H    0  0  0  0  0  0  0  0  0  0  0  0
    5.8287    9.4230   27.2620 H    0  0  0  0  0  0  0  0  0  0  0  0
    4.8748   11.7103   27.4312 H    0  0  0  0  0  0  0  0  0  0  0  0
    5.6670   13.4882   25.9824 H    0  0  0  0  0  0  0  0  0  0  0  0
    7.7840   12.8747   23.0269 H    0  0  0  0  0  0  0  0  0  0  0  0
   11.7797   14.8021   24.0163 H    0  0  0  0  0  0  0  0  0  0  0  0
   10.7562   16.2066   24.3652 H    0  0  0  0  0  0  0  0  0  0  0  0
   12.4738   16.1502   22.1927 H    0  0  0  0  0  0  0  0  0  0  0  0
   10.9606   17.0874   22.2015 H    0  0  0  0  0  0  0  0  0  0  0  0
   11.4773   14.2792   21.1775 H    0  0  0  0  0  0  0  0  0  0  0  0
   10.7071   15.1172   17.8846 H    0  0  0  0  0  0  0  0  0  0  0  0
   11.0056   13.8396   19.0580 H    0  0  0  0  0  0  0  0  0  0  0  0
    9.2899   13.6073   21.5509 H    0  0  0  0  0  0  0  0  0  0  0  0
    8.6481   15.2561   21.7175 H    0  0  0  0  0  0  0  0  0  0  0  0
    7.4471   16.3356   24.1258 H    0  0  0  0  0  0  0  0  0  0  0  0
    6.6360   15.5477   25.4891 H    0  0  0  0  0  0  0  0  0  0  0  0
    5.4383   17.4403   23.7683 H    0  0  0  0  0  0  0  0  0  0  0  0
    4.5474   16.3086   24.8010 H    0  0  0  0  0  0  0  0  0  0  0  0
    4.9635   16.1828   21.8365 H    0  0  0  0  0  0  0  0  0  0  0  0
    3.7487   15.3428   22.8310 H    0  0  0  0  0  0  0  0  0  0  0  0
  8  9  1  0  0  0  0
  7  8  2  0  0  0  0
  6  7  1  0  0  0  0
  5  6  2  0  0  0  0
  4  5  1  0  0  0  0
  3  4  2  0  0  0  0
  2  3  1  0  0  0  0
  1  2  1  0  0  0  0
 26  1  1  0  0  0  0
 27  1  1  0  0  0  0
 28  1  1  0  0  0  0
 29  4  1  0  0  0  0
 30  5  1  0  0  0  0
 31  6  1  0  0  0  0
 32  7  1  0  0  0  0
 10  9  1  0  0  0  0
 20  9  1  0  0  0  0
 33  9  1  0  0  0  0
 11 10  2  0  0  0  0
 12 10  1  0  0  0  0
 13 12  1  0  0  0  0
 14 13  1  0  0  0  0
 34 13  1  0  0  0  0
 35 13  1  0  0  0  0
 15 14  1  0  0  0  0
 36 14  1  0  0  0  0
 37 14  1  0  0  0  0
 16 15  1  0  0  0  0
 19 15  1  0  0  0  0
 38 15  1  0  0  0  0
 17 16  1  0  0  0  0
 18 16  2  0  0  0  0
 39 17  1  0  0  0  0
 40 17  1  0  0  0  0
 41 19  1  0  0  0  0
 42 19  1  0  0  0  0
 21 20  1  0  0  0  0
 22 21  1  0  0  0  0
 43 21  1  0  0  0  0
 44 21  1  0  0  0  0
 23 22  1  0  0  0  0
 45 22  1  0  0  0  0
 46 22  1  0  0  0  0
 24 23  1  0  0  0  0
 47 23  1  0  0  0  0
 48 23  1  0  0  0  0
 25 24  2  0  0  0  0
  8  3  1  0  0  0  0
 19 12  1  0  0  0  0
 24 20  1  0  0  0  0
M  END
>  <FittedScore>
-34.20

$$$$
