A71EV2A-x7038a_lowest-energy
  FITTED

 48 50     0  0  0  0  0  0  0999 V2000
    9.0998    8.9382   23.4459 C    0  0  0  0  0  0  0  0  0  0  0  0
    9.1584   10.7093   23.8607 S    0  0  0  0  0  0  0  0  0  0  0  0
    7.7211   11.0714   24.8766 C    0  0  0  0  0  0  0  0  0  0  0  0
    7.2227   10.0687   25.7340 C    0  0  0  0  0  0  0  0  0  0  0  0
    6.1574   10.3199   26.6006 C    0  0  0  0  0  0  0  0  0  0  0  0
    5.5668   11.5854   26.6182 C    0  0  0  0  0  0  0  0  0  0  0  0
    6.0318   12.5882   25.7636 C    0  0  0  0  0  0  0  0  0  0  0  0
    7.1023   12.3578   24.8649 C    0  0  0  0  0  0  0  0  0  0  0  0
    7.5900   13.4748   23.8986 C    0  0  0  0  0  0  0  0  0  0  0  0
    8.9165   14.1375   24.3261 C    0  0  0  0  0  0  0  0  0  0  0  0
    9.2145   14.2204   25.5048 O    0  0  0  0  0  0  0  0  0  0  0  0
    9.7029   14.7186   23.3596 N    0  0  0  0  0  0  0  0  0  0  0  0
   10.8826   15.5761   23.6037 C    0  0  0  0  0  0  0  0  0  0  0  0
   11.3508   16.1576   22.2537 C    0  0  0  0  0  0  0  0  0  0  0  0
   10.7716   15.1682   21.2320 C    0  0  0  0  0  0  0  0  0  0  0  0
   10.4972   15.7127   19.8355 C    0  0  0  0  0  0  0  0  0  0  0  0
   10.7708   14.8482   18.8369 N    0  0  0  0  0  0  0  0  0  0  0  0
    9.7779   16.6713   19.6288 O    0  0  0  0  0  0  0  0  0  0  0  0
    9.4873   14.6633   21.9020 C    0  0  0  0  0  0  0  0  0  0  0  0
    6.5406   14.4640   23.5080 N    0  0  0  0  0  0  0  0  0  0  0  0
    6.4255   15.7562   24.2054 C    0  0  0  0  0  0  0  0  0  0  0  0
    5.0565   16.2993   23.7683 C    0  0  0  0  0  0  0  0  0  0  0  0
    4.7080   15.5017   22.4957 C    0  0  0  0  0  0  0  0  0  0  0  0
    5.6342   14.3100   22.5230 C    0  0  0  0  0  0  0  0  0  0  0  0
    5.6157   13.3912   21.7295 O    0  0  0  0  0  0  0  0  0  0  0  0
    9.8487    8.7240   22.6831 H    0  0  0  0  0  0  0  0  0  0  0  0
    8.1144    8.6710   23.0619 H    0  0  0  0  0  0  0  0  0  0  0  0
    9.3360    8.3391   24.3264 H    0  0  0  0  0  0  0  0  0  0  0  0
    7.6701    9.0816   25.7718 H    0  0  0  0  0  0  0  0  0  0  0  0
    5.7908    9.5350   27.2596 H    0  0  0  0  0  0  0  0  0  0  0  0
    4.7411   11.7877   27.2927 H    0  0  0  0  0  0  0  0  0  0  0  0
    5.5322   13.5472   25.8183 H    0  0  0  0  0  0  0  0  0  0  0  0
    7.7853   12.9295   22.9802 H    0  0  0  0  0  0  0  0  0  0  0  0
   11.6809   14.9835   24.0609 H    0  0  0  0  0  0  0  0  0  0  0  0
   10.6199   16.3853   24.2910 H    0  0  0  0  0  0  0  0  0  0  0  0
   12.4410   16.2062   22.1892 H    0  0  0  0  0  0  0  0  0  0  0  0
   10.9452   17.1660   22.1192 H    0  0  0  0  0  0  0  0  0  0  0  0
   11.4818   14.3312   21.1668 H    0  0  0  0  0  0  0  0  0  0  0  0
   11.0349   13.8851   19.0506 H    0  0  0  0  0  0  0  0  0  0  0  0
   10.6268   15.1228   17.8717 H    0  0  0  0  0  0  0  0  0  0  0  0
    9.3078   13.6441   21.5533 H    0  0  0  0  0  0  0  0  0  0  0  0
    8.6157   15.2729   21.6411 H    0  0  0  0  0  0  0  0  0  0  0  0
    7.2226   16.4310   23.8797 H    0  0  0  0  0  0  0  0  0  0  0  0
    6.4834   15.6476   25.2922 H    0  0  0  0  0  0  0  0  0  0  0  0
    5.0992   17.3736   23.5636 H    0  0  0  0  0  0  0  0  0  0  0  0
    4.3062   16.1221   24.5471 H    0  0  0  0  0  0  0  0  0  0  0  0
    4.8907   16.0984   21.5958 H    0  0  0  0  0  0  0  0  0  0  0  0
    3.6621   15.1828   22.5016 H    0  0  0  0  0  0  0  0  0  0  0  0
  8  9  1  0  0  0  0
  7  8  2  0  0  0  0
  6  7  1  0  0  0  0
  5  6  2  0  0  0  0
  4  5  1  0  0  0  0
  3  4  2  0  0  0  0
  2  3  1  0  0  0  0
  1  2  1  0  0  0  0
 26  1  1  0  0  0  0
 27  1  1  0  0  0  0
 28  1  1  0  0  0  0
 29  4  1  0  0  0  0
 30  5  1  0  0  0  0
 31  6  1  0  0  0  0
 32  7  1  0  0  0  0
 10  9  1  0  0  0  0
 20  9  1  0  0  0  0
 33  9  1  0  0  0  0
 11 10  2  0  0  0  0
 12 10  1  0  0  0  0
 13 12  1  0  0  0  0
 14 13  1  0  0  0  0
 34 13  1  0  0  0  0
 35 13  1  0  0  0  0
 15 14  1  0  0  0  0
 36 14  1  0  0  0  0
 37 14  1  0  0  0  0
 16 15  1  0  0  0  0
 19 15  1  0  0  0  0
 38 15  1  0  0  0  0
 17 16  1  0  0  0  0
 18 16  2  0  0  0  0
 39 17  1  0  0  0  0
 40 17  1  0  0  0  0
 41 19  1  0  0  0  0
 42 19  1  0  0  0  0
 21 20  1  0  0  0  0
 22 21  1  0  0  0  0
 43 21  1  0  0  0  0
 44 21  1  0  0  0  0
 23 22  1  0  0  0  0
 45 22  1  0  0  0  0
 46 22  1  0  0  0  0
 24 23  1  0  0  0  0
 47 23  1  0  0  0  0
 48 23  1  0  0  0  0
 25 24  2  0  0  0  0
  8  3  1  0  0  0  0
 19 12  1  0  0  0  0
 24 20  1  0  0  0  0
M  END
>  <FittedScore>
-34.49

$$$$
