A71EV2A-x4877a_best-RMSD
  FITTED

 38 40     0  0  0  0  0  0  0999 V2000
    7.3378   13.3567   22.8773 O    0  0  0  0  0  0  0  0  0  0  0  0
    8.2031   13.8383   23.5965 C    0  0  0  0  0  0  0  0  0  0  0  0
    8.9275   14.9478   23.2046 N    0  0  0  0  0  0  0  0  0  0  0  0
    9.9727   15.6840   24.0013 C    0  0  0  0  0  0  0  0  0  0  0  0
   11.3900   15.4637   23.4130 C    0  0  0  0  0  0  0  0  0  0  0  0
   11.4520   15.8782   21.9140 C    0  0  0  0  0  0  0  0  0  0  0  0
    8.9034   15.4830   21.8084 C    0  0  0  0  0  0  0  0  0  0  0  0
   10.2755   15.2521   21.1037 C    0  0  0  0  0  0  0  0  0  0  0  0
   10.2799   15.7602   19.6648 C    0  0  0  0  0  0  0  0  0  0  0  0
    9.9045   16.8687   19.3304 O    0  0  0  0  0  0  0  0  0  0  0  0
   10.6405   14.8416   18.7492 N    0  0  0  0  0  0  0  0  0  0  0  0
    8.5705   13.1363   24.9176 C    0  0  0  0  0  0  0  0  0  0  0  0
    8.2289   11.6456   24.8953 C    0  0  0  0  0  0  0  0  0  0  0  0
    9.0152   10.7169   24.2209 C    0  0  0  0  0  0  0  0  0  0  0  0
    8.4843    9.4411   24.2440 C    0  0  0  0  0  0  0  0  0  0  0  0
    6.9703    9.3597   25.1463 S    0  0  0  0  0  0  0  0  0  0  0  0
    7.0737   11.0846   25.4441 C    0  0  0  0  0  0  0  0  0  0  0  0
    6.0063   11.8287   26.2369 C    0  0  0  0  0  0  0  0  0  0  0  0
    6.0762   13.3681   26.1781 C    0  0  0  0  0  0  0  0  0  0  0  0
    7.7872   13.9743   26.3510 S    0  0  0  0  0  0  0  0  0  0  0  0
    9.7383   16.7535   24.0078 H    0  0  0  0  0  0  0  0  0  0  0  0
    9.9922   15.4253   25.0570 H    0  0  0  0  0  0  0  0  0  0  0  0
   12.1260   16.0329   23.9837 H    0  0  0  0  0  0  0  0  0  0  0  0
   11.6599   14.4074   23.5169 H    0  0  0  0  0  0  0  0  0  0  0  0
   11.4316   16.9686   21.8330 H    0  0  0  0  0  0  0  0  0  0  0  0
   12.4036   15.5435   21.4923 H    0  0  0  0  0  0  0  0  0  0  0  0
    8.6726   16.5538   21.8309 H    0  0  0  0  0  0  0  0  0  0  0  0
    8.1169   15.0451   21.1902 H    0  0  0  0  0  0  0  0  0  0  0  0
   10.4372   14.1648   21.1020 H    0  0  0  0  0  0  0  0  0  0  0  0
   10.7919   13.8762   19.0355 H    0  0  0  0  0  0  0  0  0  0  0  0
   10.6237   15.0710   17.7661 H    0  0  0  0  0  0  0  0  0  0  0  0
    9.6487   13.1839   25.0915 H    0  0  0  0  0  0  0  0  0  0  0  0
    9.9440   10.9648   23.7104 H    0  0  0  0  0  0  0  0  0  0  0  0
    8.9380    8.5858   23.7520 H    0  0  0  0  0  0  0  0  0  0  0  0
    5.0223   11.5088   25.8859 H    0  0  0  0  0  0  0  0  0  0  0  0
    6.0849   11.5162   27.2807 H    0  0  0  0  0  0  0  0  0  0  0  0
    5.6673   13.7236   25.2287 H    0  0  0  0  0  0  0  0  0  0  0  0
    5.4733   13.8022   26.9776 H    0  0  0  0  0  0  0  0  0  0  0  0
  2  1  2  0  0  0  0
  3  2  1  0  0  0  0
  4  3  1  0  0  0  0
 21  4  1  0  0  0  0
 22  4  1  0  0  0  0
  5  4  1  0  0  0  0
 23  5  1  0  0  0  0
 24  5  1  0  0  0  0
  6  5  1  0  0  0  0
 25  6  1  0  0  0  0
 26  6  1  0  0  0  0
  7  3  1  0  0  0  0
 27  7  1  0  0  0  0
 28  7  1  0  0  0  0
  8  6  1  0  0  0  0
  9  8  1  0  0  0  0
 29  8  1  0  0  0  0
 10  9  2  0  0  0  0
 11  9  1  0  0  0  0
 30 11  1  0  0  0  0
 31 11  1  0  0  0  0
 12  2  1  0  0  0  0
 20 12  1  0  0  0  0
 32 12  1  0  0  0  0
 13 12  1  0  0  0  0
 14 13  1  0  0  0  0
 33 14  1  0  0  0  0
 15 14  2  0  0  0  0
 34 15  1  0  0  0  0
 16 15  1  0  0  0  0
 17 16  1  0  0  0  0
 18 17  1  0  0  0  0
 35 18  1  0  0  0  0
 36 18  1  0  0  0  0
 19 18  1  0  0  0  0
 37 19  1  0  0  0  0
 38 19  1  0  0  0  0
  8  7  1  0  0  0  0
 17 13  2  0  0  0  0
 20 19  1  0  0  0  0
M  END
>  <FittedScore>
-33.40

$$$$
