A71EV2A-x4274b_best-RMSD
  FITTED

 38 39     0  0  0  0  0  0  0999 V2000
    9.8218   16.7093   19.6098 O    0  0  0  0  0  0  0  0  0  0  0  0
   10.3947   15.6750   19.8938 C    0  0  0  0  0  0  0  0  0  0  0  0
   10.6819   14.7719   18.9344 N    0  0  0  0  0  0  0  0  0  0  0  0
   10.5944   15.1968   21.3289 C    0  0  0  0  0  0  0  0  0  0  0  0
   11.4150   16.2252   22.1655 C    0  0  0  0  0  0  0  0  0  0  0  0
   11.5561   15.7726   23.6457 C    0  0  0  0  0  0  0  0  0  0  0  0
   10.1915   15.4032   24.2927 C    0  0  0  0  0  0  0  0  0  0  0  0
    9.2107   14.9134   21.9960 C    0  0  0  0  0  0  0  0  0  0  0  0
    9.3582   14.4457   23.4380 N    0  0  0  0  0  0  0  0  0  0  0  0
    9.6932   12.9590   23.6186 C    0  0  0  0  0  0  0  0  0  0  0  0
    8.6659   12.2398   24.5126 C    0  0  0  0  0  0  0  0  0  0  0  0
    8.5467   10.8299   24.4836 C    0  0  0  0  0  0  0  0  0  0  0  0
    9.3824   10.1077   23.6412 O    0  0  0  0  0  0  0  0  0  0  0  0
    9.3476    8.6822   23.4568 C    0  0  0  0  0  0  0  0  0  0  0  0
    7.8963   12.9983   25.3559 N    0  0  0  0  0  0  0  0  0  0  0  0
    6.9943   12.3942   26.1698 C    0  0  0  0  0  0  0  0  0  0  0  0
    6.8226   11.0047   26.1865 C    0  0  0  0  0  0  0  0  0  0  0  0
    7.5943   10.2136   25.3315 C    0  0  0  0  0  0  0  0  0  0  0  0
   10.5492   15.0292   17.9675 H    0  0  0  0  0  0  0  0  0  0  0  0
   10.9005   13.8017   19.1630 H    0  0  0  0  0  0  0  0  0  0  0  0
   11.1660   14.2574   21.3207 H    0  0  0  0  0  0  0  0  0  0  0  0
   12.4064   16.3548   21.7230 H    0  0  0  0  0  0  0  0  0  0  0  0
   10.9381   17.2108   22.1380 H    0  0  0  0  0  0  0  0  0  0  0  0
   12.2456   14.9268   23.7101 H    0  0  0  0  0  0  0  0  0  0  0  0
   12.0076   16.5885   24.2167 H    0  0  0  0  0  0  0  0  0  0  0  0
   10.3421   14.9655   25.2832 H    0  0  0  0  0  0  0  0  0  0  0  0
    9.5939   16.3071   24.4362 H    0  0  0  0  0  0  0  0  0  0  0  0
    8.6375   14.1695   21.4340 H    0  0  0  0  0  0  0  0  0  0  0  0
    8.5935   15.8167   22.0159 H    0  0  0  0  0  0  0  0  0  0  0  0
    8.4025   14.5280   23.8229 H    0  0  0  0  0  0  0  0  0  0  0  0
    9.7292   12.4811   22.6364 H    0  0  0  0  0  0  0  0  0  0  0  0
   10.6924   12.8391   24.0454 H    0  0  0  0  0  0  0  0  0  0  0  0
    8.3534    8.3392   23.1556 H    0  0  0  0  0  0  0  0  0  0  0  0
    9.6497    8.1837   24.3822 H    0  0  0  0  0  0  0  0  0  0  0  0
   10.0616    8.4283   22.6765 H    0  0  0  0  0  0  0  0  0  0  0  0
    6.3886   13.0116   26.8252 H    0  0  0  0  0  0  0  0  0  0  0  0
    6.1078   10.5461   26.8633 H    0  0  0  0  0  0  0  0  0  0  0  0
    7.4580    9.1385   25.3518 H    0  0  0  0  0  0  0  0  0  0  0  0
  9 10  1  0  0  0  0
  7  9  1  0  0  0  0
  6  7  1  0  0  0  0
  5  6  1  0  0  0  0
  4  5  1  0  0  0  0
  2  4  1  0  0  0  0
  1  2  2  0  0  0  0
  3  2  1  0  0  0  0
 19  3  1  0  0  0  0
 20  3  1  0  0  0  0
 21  4  1  0  0  0  0
 22  5  1  0  0  0  0
 23  5  1  0  0  0  0
 24  6  1  0  0  0  0
 25  6  1  0  0  0  0
 26  7  1  0  0  0  0
 27  7  1  0  0  0  0
  8  4  1  0  0  0  0
 28  8  1  0  0  0  0
 29  8  1  0  0  0  0
 30  9  1  0  0  0  0
 31 10  1  0  0  0  0
 32 10  1  0  0  0  0
 11 10  1  0  0  0  0
 12 11  1  0  0  0  0
 18 12  2  0  0  0  0
 13 12  1  0  0  0  0
 14 13  1  0  0  0  0
 33 14  1  0  0  0  0
 34 14  1  0  0  0  0
 35 14  1  0  0  0  0
 15 11  2  0  0  0  0
 16 15  1  0  0  0  0
 36 16  1  0  0  0  0
 17 16  2  0  0  0  0
 37 17  1  0  0  0  0
 38 18  1  0  0  0  0
  9  8  1  0  0  0  0
 18 17  1  0  0  0  0
M  CHG  1   9   1
M  END
>  <FittedScore>
-25.21

$$$$
