A71EV2A-x5431a_lowest-energy
  FITTED

 35 37     0  0  0  0  0  0  0999 V2000
   10.6658   14.6425   18.8139 N    0  0  0  0  0  0  0  0  0  0  0  0
   10.4503   15.5601   19.7720 C    0  0  0  0  0  0  0  0  0  0  0  0
    9.8348   16.5771   19.5104 O    0  0  0  0  0  0  0  0  0  0  0  0
   10.8192   15.1095   21.1835 C    0  0  0  0  0  0  0  0  0  0  0  0
   11.7540   16.0605   21.9389 C    0  0  0  0  0  0  0  0  0  0  0  0
   11.4701   15.7265   23.4116 C    0  0  0  0  0  0  0  0  0  0  0  0
   10.1581   15.0385   23.5015 N    0  0  0  0  0  0  0  0  0  0  0  0
    9.6429   14.5056   24.6567 C    0  0  0  0  0  0  0  0  0  0  0  0
   10.2933   14.5024   25.6869 O    0  0  0  0  0  0  0  0  0  0  0  0
    8.2831   13.7931   24.6272 C    0  0  0  0  0  0  0  0  0  0  0  0
    7.3157   14.2585   26.1188 S    0  0  0  0  0  0  0  0  0  0  0  0
    5.8790   13.1590   25.9381 C    0  0  0  0  0  0  0  0  0  0  0  0
    6.3155   11.6853   25.9463 C    0  0  0  0  0  0  0  0  0  0  0  0
    7.5073   11.3544   25.0578 C    0  0  0  0  0  0  0  0  0  0  0  0
    7.8948    9.6903   24.6750 S    0  0  0  0  0  0  0  0  0  0  0  0
    9.2982   10.2505   23.7692 C    0  0  0  0  0  0  0  0  0  0  0  0
    9.4022   11.6260   23.7562 C    0  0  0  0  0  0  0  0  0  0  0  0
    8.4064   12.2664   24.4944 C    0  0  0  0  0  0  0  0  0  0  0  0
    9.6179   14.9359   22.1298 C    0  0  0  0  0  0  0  0  0  0  0  0
   10.9275   13.6871   19.0512 H    0  0  0  0  0  0  0  0  0  0  0  0
   10.6297   14.9143   17.8411 H    0  0  0  0  0  0  0  0  0  0  0  0
   11.3291   14.1338   21.1348 H    0  0  0  0  0  0  0  0  0  0  0  0
   11.5175   17.1097   21.7370 H    0  0  0  0  0  0  0  0  0  0  0  0
   12.8001   15.8846   21.6776 H    0  0  0  0  0  0  0  0  0  0  0  0
   11.4611   16.6416   24.0134 H    0  0  0  0  0  0  0  0  0  0  0  0
   12.2590   15.0759   23.8098 H    0  0  0  0  0  0  0  0  0  0  0  0
    7.6622   14.1405   23.8003 H    0  0  0  0  0  0  0  0  0  0  0  0
    5.3675   13.3966   25.0004 H    0  0  0  0  0  0  0  0  0  0  0  0
    5.1884   13.3656   26.7596 H    0  0  0  0  0  0  0  0  0  0  0  0
    5.4652   11.0723   25.6416 H    0  0  0  0  0  0  0  0  0  0  0  0
    6.5522   11.3961   26.9737 H    0  0  0  0  0  0  0  0  0  0  0  0
   10.0111    9.5835   23.2899 H    0  0  0  0  0  0  0  0  0  0  0  0
   10.2072   12.1367   23.2248 H    0  0  0  0  0  0  0  0  0  0  0  0
    8.8582   15.7114   21.9757 H    0  0  0  0  0  0  0  0  0  0  0  0
    9.1538   13.9660   21.9337 H    0  0  0  0  0  0  0  0  0  0  0  0
  6  7  1  0  0  0  0
  5  6  1  0  0  0  0
  4  5  1  0  0  0  0
  2  4  1  0  0  0  0
  1  2  1  0  0  0  0
 20  1  1  0  0  0  0
 21  1  1  0  0  0  0
  3  2  2  0  0  0  0
 22  4  1  0  0  0  0
 23  5  1  0  0  0  0
 24  5  1  0  0  0  0
 25  6  1  0  0  0  0
 26  6  1  0  0  0  0
  8  7  1  0  0  0  0
 19  7  1  0  0  0  0
  9  8  2  0  0  0  0
 10  8  1  0  0  0  0
 11 10  1  0  0  0  0
 27 10  1  0  0  0  0
 12 11  1  0  0  0  0
 13 12  1  0  0  0  0
 28 12  1  0  0  0  0
 29 12  1  0  0  0  0
 14 13  1  0  0  0  0
 30 13  1  0  0  0  0
 31 13  1  0  0  0  0
 15 14  1  0  0  0  0
 16 15  1  0  0  0  0
 17 16  2  0  0  0  0
 32 16  1  0  0  0  0
 18 17  1  0  0  0  0
 33 17  1  0  0  0  0
 34 19  1  0  0  0  0
 35 19  1  0  0  0  0
 18 10  1  0  0  0  0
 18 14  2  0  0  0  0
 19  4  1  0  0  0  0
M  END
>  <FittedScore>
-30.90

$$$$
