A71EV2A-x5431a_best-RMSD
  FITTED

 35 37     0  0  0  0  0  0  0999 V2000
   10.6920   14.6174   18.7903 N    0  0  0  0  0  0  0  0  0  0  0  0
   10.4949   15.5528   19.7333 C    0  0  0  0  0  0  0  0  0  0  0  0
    9.8584   16.5609   19.4915 O    0  0  0  0  0  0  0  0  0  0  0  0
   10.8732   15.0930   21.1347 C    0  0  0  0  0  0  0  0  0  0  0  0
   11.7774   16.0598   21.9058 C    0  0  0  0  0  0  0  0  0  0  0  0
   11.5103   15.6688   23.3683 C    0  0  0  0  0  0  0  0  0  0  0  0
   10.2016   14.9740   23.4415 N    0  0  0  0  0  0  0  0  0  0  0  0
    9.6742   14.4189   24.5801 C    0  0  0  0  0  0  0  0  0  0  0  0
   10.3344   14.3513   25.5998 O    0  0  0  0  0  0  0  0  0  0  0  0
    8.2851   13.7679   24.5531 C    0  0  0  0  0  0  0  0  0  0  0  0
    7.3330   14.3181   26.0232 S    0  0  0  0  0  0  0  0  0  0  0  0
    5.8505   13.2770   25.8618 C    0  0  0  0  0  0  0  0  0  0  0  0
    6.2349   11.7876   25.9413 C    0  0  0  0  0  0  0  0  0  0  0  0
    7.4141   11.3729   25.0654 C    0  0  0  0  0  0  0  0  0  0  0  0
    7.7492    9.6804   24.7481 S    0  0  0  0  0  0  0  0  0  0  0  0
    9.1745   10.1558   23.8287 C    0  0  0  0  0  0  0  0  0  0  0  0
    9.3343   11.5277   23.7787 C    0  0  0  0  0  0  0  0  0  0  0  0
    8.3516   12.2313   24.4774 C    0  0  0  0  0  0  0  0  0  0  0  0
    9.6708   14.8780   22.0663 C    0  0  0  0  0  0  0  0  0  0  0  0
   10.9615   13.6647   19.0407 H    0  0  0  0  0  0  0  0  0  0  0  0
   10.6256   14.8545   17.8152 H    0  0  0  0  0  0  0  0  0  0  0  0
   11.4144   14.1367   21.0840 H    0  0  0  0  0  0  0  0  0  0  0  0
   11.5009   17.1044   21.7312 H    0  0  0  0  0  0  0  0  0  0  0  0
   12.8286   15.9281   21.6318 H    0  0  0  0  0  0  0  0  0  0  0  0
   11.4980   16.5563   24.0053 H    0  0  0  0  0  0  0  0  0  0  0  0
   12.3105   15.0133   23.7253 H    0  0  0  0  0  0  0  0  0  0  0  0
    7.6862   14.1216   23.7113 H    0  0  0  0  0  0  0  0  0  0  0  0
    5.3697   13.4956   24.9042 H    0  0  0  0  0  0  0  0  0  0  0  0
    5.1508   13.5318   26.6598 H    0  0  0  0  0  0  0  0  0  0  0  0
    5.3645   11.1823   25.6759 H    0  0  0  0  0  0  0  0  0  0  0  0
    6.4840   11.5428   26.9775 H    0  0  0  0  0  0  0  0  0  0  0  0
    9.8485    9.4483   23.3553 H    0  0  0  0  0  0  0  0  0  0  0  0
   10.1593   11.9937   23.2441 H    0  0  0  0  0  0  0  0  0  0  0  0
    8.9005   15.6447   21.9253 H    0  0  0  0  0  0  0  0  0  0  0  0
    9.2234   13.9016   21.8562 H    0  0  0  0  0  0  0  0  0  0  0  0
  6  7  1  0  0  0  0
  5  6  1  0  0  0  0
  4  5  1  0  0  0  0
  2  4  1  0  0  0  0
  1  2  1  0  0  0  0
 20  1  1  0  0  0  0
 21  1  1  0  0  0  0
  3  2  2  0  0  0  0
 22  4  1  0  0  0  0
 23  5  1  0  0  0  0
 24  5  1  0  0  0  0
 25  6  1  0  0  0  0
 26  6  1  0  0  0  0
  8  7  1  0  0  0  0
 19  7  1  0  0  0  0
  9  8  2  0  0  0  0
 10  8  1  0  0  0  0
 11 10  1  0  0  0  0
 27 10  1  0  0  0  0
 12 11  1  0  0  0  0
 13 12  1  0  0  0  0
 28 12  1  0  0  0  0
 29 12  1  0  0  0  0
 14 13  1  0  0  0  0
 30 13  1  0  0  0  0
 31 13  1  0  0  0  0
 15 14  1  0  0  0  0
 16 15  1  0  0  0  0
 17 16  2  0  0  0  0
 32 16  1  0  0  0  0
 18 17  1  0  0  0  0
 33 17  1  0  0  0  0
 34 19  1  0  0  0  0
 35 19  1  0  0  0  0
 18 10  1  0  0  0  0
 18 14  2  0  0  0  0
 19  4  1  0  0  0  0
M  END
>  <FittedScore>
-30.77

$$$$
