A71EV2A-x6856a_lowest-energy
  FITTED

 53 55     0  0  0  0  0  0  0999 V2000
    9.0722    8.8448   23.4523 C    0  0  0  0  0  0  0  0  0  0  0  0
    9.1811   10.5861   23.9407 S    0  0  0  0  0  0  0  0  0  0  0  0
    7.7113   10.9860   24.8951 C    0  0  0  0  0  0  0  0  0  0  0  0
    7.0956    9.9852   25.6735 C    0  0  0  0  0  0  0  0  0  0  0  0
    6.0097   10.2816   26.5038 C    0  0  0  0  0  0  0  0  0  0  0  0
    5.5269   11.5929   26.5754 C    0  0  0  0  0  0  0  0  0  0  0  0
    6.1178   12.5970   25.8013 C    0  0  0  0  0  0  0  0  0  0  0  0
    7.1898   12.3094   24.9155 C    0  0  0  0  0  0  0  0  0  0  0  0
    7.7532   13.3899   23.9524 C    0  0  0  0  0  0  0  0  0  0  0  0
    6.7973   14.4825   23.6975 N    0  0  0  0  0  0  0  0  0  0  0  0
    5.9292   14.5486   22.6572 C    0  0  0  0  0  0  0  0  0  0  0  0
    5.9045   13.7142   21.7644 O    0  0  0  0  0  0  0  0  0  0  0  0
    4.8858   15.6473   22.7887 C    0  0  0  0  0  0  0  0  0  0  0  0
    3.9875   15.4771   24.0172 C    0  0  0  0  0  0  0  0  0  0  0  0
    3.8343   16.5148   24.9572 C    0  0  0  0  0  0  0  0  0  0  0  0
    3.0041   16.3165   26.0704 C    0  0  0  0  0  0  0  0  0  0  0  0
    2.3499   15.0846   26.2200 C    0  0  0  0  0  0  0  0  0  0  0  0
    2.4885   14.0717   25.3207 N    0  0  0  0  0  0  0  0  0  0  0  0
    3.3051   14.2617   24.2465 C    0  0  0  0  0  0  0  0  0  0  0  0
    9.1179   13.9803   24.3391 C    0  0  0  0  0  0  0  0  0  0  0  0
    9.4847   13.9501   25.4990 O    0  0  0  0  0  0  0  0  0  0  0  0
    9.8866   14.5723   23.3624 N    0  0  0  0  0  0  0  0  0  0  0  0
   11.1431   15.3282   23.5878 C    0  0  0  0  0  0  0  0  0  0  0  0
   11.5578   15.9710   22.2431 C    0  0  0  0  0  0  0  0  0  0  0  0
   10.8981   15.0481   21.2085 C    0  0  0  0  0  0  0  0  0  0  0  0
   10.6571   15.6204   19.8112 C    0  0  0  0  0  0  0  0  0  0  0  0
   10.9645   14.7859   18.8007 N    0  0  0  0  0  0  0  0  0  0  0  0
    9.9411   16.5795   19.5995 O    0  0  0  0  0  0  0  0  0  0  0  0
    9.6109   14.5971   21.9093 C    0  0  0  0  0  0  0  0  0  0  0  0
    9.8413    8.6352   22.7089 H    0  0  0  0  0  0  0  0  0  0  0  0
    8.0912    8.6253   23.0265 H    0  0  0  0  0  0  0  0  0  0  0  0
    9.2483    8.2119   24.3235 H    0  0  0  0  0  0  0  0  0  0  0  0
    7.4718    8.9658   25.6839 H    0  0  0  0  0  0  0  0  0  0  0  0
    5.5548    9.4964   27.1044 H    0  0  0  0  0  0  0  0  0  0  0  0
    4.6925   11.8333   27.2293 H    0  0  0  0  0  0  0  0  0  0  0  0
    5.7190   13.6020   25.9036 H    0  0  0  0  0  0  0  0  0  0  0  0
    7.8773   12.8519   23.0183 H    0  0  0  0  0  0  0  0  0  0  0  0
    6.6738   15.1247   24.4757 H    0  0  0  0  0  0  0  0  0  0  0  0
    4.2638   15.6841   21.8908 H    0  0  0  0  0  0  0  0  0  0  0  0
    5.3940   16.6161   22.8126 H    0  0  0  0  0  0  0  0  0  0  0  0
    4.3525   17.4631   24.8324 H    0  0  0  0  0  0  0  0  0  0  0  0
    2.8731   17.1075   26.8037 H    0  0  0  0  0  0  0  0  0  0  0  0
    1.7090   14.9337   27.0829 H    0  0  0  0  0  0  0  0  0  0  0  0
    3.4228   13.4390   23.5419 H    0  0  0  0  0  0  0  0  0  0  0  0
   11.9195   14.6450   23.9477 H    0  0  0  0  0  0  0  0  0  0  0  0
   10.9963   16.0990   24.3463 H    0  0  0  0  0  0  0  0  0  0  0  0
   12.6464   15.9963   22.1310 H    0  0  0  0  0  0  0  0  0  0  0  0
   11.1706   16.9933   22.1682 H    0  0  0  0  0  0  0  0  0  0  0  0
   11.5547   14.1702   21.1252 H    0  0  0  0  0  0  0  0  0  0  0  0
   10.7921   15.0773   17.8403 H    0  0  0  0  0  0  0  0  0  0  0  0
   11.2816   13.8441   18.9901 H    0  0  0  0  0  0  0  0  0  0  0  0
    9.3452   13.6095   21.5278 H    0  0  0  0  0  0  0  0  0  0  0  0
    8.7843   15.2845   21.7106 H    0  0  0  0  0  0  0  0  0  0  0  0
  8  9  1  0  0  0  0
  7  8  2  0  0  0  0
  6  7  1  0  0  0  0
  5  6  2  0  0  0  0
  4  5  1  0  0  0  0
  3  4  2  0  0  0  0
  2  3  1  0  0  0  0
  1  2  1  0  0  0  0
 30  1  1  0  0  0  0
 31  1  1  0  0  0  0
 32  1  1  0  0  0  0
 33  4  1  0  0  0  0
 34  5  1  0  0  0  0
 35  6  1  0  0  0  0
 36  7  1  0  0  0  0
 10  9  1  0  0  0  0
 20  9  1  0  0  0  0
 37  9  1  0  0  0  0
 11 10  1  0  0  0  0
 38 10  1  0  0  0  0
 12 11  2  0  0  0  0
 13 11  1  0  0  0  0
 14 13  1  0  0  0  0
 39 13  1  0  0  0  0
 40 13  1  0  0  0  0
 15 14  2  0  0  0  0
 16 15  1  0  0  0  0
 41 15  1  0  0  0  0
 17 16  2  0  0  0  0
 42 16  1  0  0  0  0
 18 17  1  0  0  0  0
 43 17  1  0  0  0  0
 19 18  2  0  0  0  0
 44 19  1  0  0  0  0
 21 20  2  0  0  0  0
 22 20  1  0  0  0  0
 23 22  1  0  0  0  0
 24 23  1  0  0  0  0
 45 23  1  0  0  0  0
 46 23  1  0  0  0  0
 25 24  1  0  0  0  0
 47 24  1  0  0  0  0
 48 24  1  0  0  0  0
 26 25  1  0  0  0  0
 29 25  1  0  0  0  0
 49 25  1  0  0  0  0
 27 26  1  0  0  0  0
 28 26  2  0  0  0  0
 50 27  1  0  0  0  0
 51 27  1  0  0  0  0
 52 29  1  0  0  0  0
 53 29  1  0  0  0  0
  8  3  1  0  0  0  0
 19 14  1  0  0  0  0
 29 22  1  0  0  0  0
M  END
>  <FittedScore>
-38.67

$$$$
