A71EV2A-x6991a_lowest-energy
  FITTED

 54 56     0  0  0  0  0  0  0999 V2000
    8.8616    8.7617   23.4296 C    0  0  0  0  0  0  0  0  0  0  0  0
    9.0156   10.4826   23.9706 S    0  0  0  0  0  0  0  0  0  0  0  0
    7.5539   10.8724   24.9378 C    0  0  0  0  0  0  0  0  0  0  0  0
    6.9967    9.8860   25.7723 C    0  0  0  0  0  0  0  0  0  0  0  0
    5.9618   10.1873   26.6640 C    0  0  0  0  0  0  0  0  0  0  0  0
    5.4657   11.4887   26.7297 C    0  0  0  0  0  0  0  0  0  0  0  0
    5.9753   12.4781   25.8778 C    0  0  0  0  0  0  0  0  0  0  0  0
    6.9920   12.1760   24.9319 C    0  0  0  0  0  0  0  0  0  0  0  0
    7.4794   13.2240   23.9027 C    0  0  0  0  0  0  0  0  0  0  0  0
    6.4229   14.2078   23.6207 N    0  0  0  0  0  0  0  0  0  0  0  0
    5.5282   14.2395   22.5993 C    0  0  0  0  0  0  0  0  0  0  0  0
    5.6192   13.4102   21.7110 O    0  0  0  0  0  0  0  0  0  0  0  0
    4.6346   15.5214   22.7601 C    0  0  0  0  0  0  0  0  0  0  0  0
    5.3416   16.8907   22.8549 C    0  0  0  0  0  0  0  0  0  0  0  0
    3.6293   14.9898   23.8619 C    0  0  0  0  0  0  0  0  0  0  0  0
    2.5153   15.5722   22.9312 C    0  0  0  0  0  0  0  0  0  0  0  0
    3.4664   15.2739   21.7197 C    0  0  0  0  0  0  0  0  0  0  0  0
    8.7816   13.9483   24.3015 C    0  0  0  0  0  0  0  0  0  0  0  0
    9.2265   13.8408   25.4305 O    0  0  0  0  0  0  0  0  0  0  0  0
    9.4584   14.6789   23.3482 N    0  0  0  0  0  0  0  0  0  0  0  0
   10.6960   15.4683   23.5869 C    0  0  0  0  0  0  0  0  0  0  0  0
   11.2204   15.9883   22.2290 C    0  0  0  0  0  0  0  0  0  0  0  0
   10.5251   15.0654   21.2222 C    0  0  0  0  0  0  0  0  0  0  0  0
   10.4018   15.6079   19.8013 C    0  0  0  0  0  0  0  0  0  0  0  0
   10.9346   14.8328   18.8359 N    0  0  0  0  0  0  0  0  0  0  0  0
    9.7679   16.6097   19.5134 O    0  0  0  0  0  0  0  0  0  0  0  0
    9.1850   14.7352   21.8929 C    0  0  0  0  0  0  0  0  0  0  0  0
    9.0006    8.0938   24.2732 H    0  0  0  0  0  0  0  0  0  0  0  0
    9.6336    8.5564   22.6890 H    0  0  0  0  0  0  0  0  0  0  0  0
    7.8816    8.6032   22.9745 H    0  0  0  0  0  0  0  0  0  0  0  0
    7.3936    8.8774   25.7874 H    0  0  0  0  0  0  0  0  0  0  0  0
    5.5683    9.4174   27.3189 H    0  0  0  0  0  0  0  0  0  0  0  0
    4.6761   11.7362   27.4336 H    0  0  0  0  0  0  0  0  0  0  0  0
    5.5597   13.4820   25.9615 H    0  0  0  0  0  0  0  0  0  0  0  0
    7.6671   12.6758   22.9813 H    0  0  0  0  0  0  0  0  0  0  0  0
    6.3276   14.9343   24.3270 H    0  0  0  0  0  0  0  0  0  0  0  0
    5.6819   17.0820   23.8738 H    0  0  0  0  0  0  0  0  0  0  0  0
    4.6737   17.7043   22.5667 H    0  0  0  0  0  0  0  0  0  0  0  0
    6.2093   16.9207   22.1916 H    0  0  0  0  0  0  0  0  0  0  0  0
    3.7050   15.4654   24.8470 H    0  0  0  0  0  0  0  0  0  0  0  0
    3.5321   13.9015   24.0228 H    0  0  0  0  0  0  0  0  0  0  0  0
    2.2814   16.6353   23.0862 H    0  0  0  0  0  0  0  0  0  0  0  0
    1.5680   15.0236   22.9282 H    0  0  0  0  0  0  0  0  0  0  0  0
    3.4181   15.9907   20.8896 H    0  0  0  0  0  0  0  0  0  0  0  0
    3.2871   14.2772   21.2925 H    0  0  0  0  0  0  0  0  0  0  0  0
   11.4511   14.8343   24.0600 H    0  0  0  0  0  0  0  0  0  0  0  0
   10.4790   16.3047   24.2554 H    0  0  0  0  0  0  0  0  0  0  0  0
   12.3108   15.9083   22.1629 H    0  0  0  0  0  0  0  0  0  0  0  0
   10.9364   17.0361   22.0740 H    0  0  0  0  0  0  0  0  0  0  0  0
   11.1046   14.1333   21.1982 H    0  0  0  0  0  0  0  0  0  0  0  0
   10.8153   15.0867   17.8604 H    0  0  0  0  0  0  0  0  0  0  0  0
   11.3533   13.9317   19.0546 H    0  0  0  0  0  0  0  0  0  0  0  0
    8.8271   13.7911   21.4839 H    0  0  0  0  0  0  0  0  0  0  0  0
    8.4302   15.4979   21.6945 H    0  0  0  0  0  0  0  0  0  0  0  0
  8  9  1  0  0  0  0
  7  8  2  0  0  0  0
  6  7  1  0  0  0  0
  5  6  2  0  0  0  0
  4  5  1  0  0  0  0
  3  4  2  0  0  0  0
  2  3  1  0  0  0  0
  1  2  1  0  0  0  0
 28  1  1  0  0  0  0
 29  1  1  0  0  0  0
 30  1  1  0  0  0  0
 31  4  1  0  0  0  0
 32  5  1  0  0  0  0
 33  6  1  0  0  0  0
 34  7  1  0  0  0  0
 10  9  1  0  0  0  0
 18  9  1  0  0  0  0
 35  9  1  0  0  0  0
 11 10  1  0  0  0  0
 36 10  1  0  0  0  0
 12 11  2  0  0  0  0
 13 11  1  0  0  0  0
 14 13  1  0  0  0  0
 15 13  1  0  0  0  0
 37 14  1  0  0  0  0
 38 14  1  0  0  0  0
 39 14  1  0  0  0  0
 16 15  1  0  0  0  0
 40 15  1  0  0  0  0
 41 15  1  0  0  0  0
 17 16  1  0  0  0  0
 42 16  1  0  0  0  0
 43 16  1  0  0  0  0
 44 17  1  0  0  0  0
 45 17  1  0  0  0  0
 19 18  2  0  0  0  0
 20 18  1  0  0  0  0
 21 20  1  0  0  0  0
 22 21  1  0  0  0  0
 46 21  1  0  0  0  0
 47 21  1  0  0  0  0
 23 22  1  0  0  0  0
 48 22  1  0  0  0  0
 49 22  1  0  0  0  0
 24 23  1  0  0  0  0
 27 23  1  0  0  0  0
 50 23  1  0  0  0  0
 25 24  1  0  0  0  0
 26 24  2  0  0  0  0
 51 25  1  0  0  0  0
 52 25  1  0  0  0  0
 53 27  1  0  0  0  0
 54 27  1  0  0  0  0
  8  3  1  0  0  0  0
 17 13  1  0  0  0  0
 27 20  1  0  0  0  0
M  END
>  <FittedScore>
-37.27

$$$$
