A71EV2A-x6991a_best-RMSD
  FITTED

 54 56     0  0  0  0  0  0  0999 V2000
    8.9560    8.7385   23.4208 C    0  0  0  0  0  0  0  0  0  0  0  0
    9.0484   10.4730   23.9418 S    0  0  0  0  0  0  0  0  0  0  0  0
    7.5831   10.8153   24.9163 C    0  0  0  0  0  0  0  0  0  0  0  0
    7.0280    9.7997   25.7194 C    0  0  0  0  0  0  0  0  0  0  0  0
    6.0053   10.0743   26.6291 C    0  0  0  0  0  0  0  0  0  0  0  0
    5.5184   11.3765   26.7499 C    0  0  0  0  0  0  0  0  0  0  0  0
    6.0190   12.3875   25.9248 C    0  0  0  0  0  0  0  0  0  0  0  0
    7.0166   12.1162   24.9516 C    0  0  0  0  0  0  0  0  0  0  0  0
    7.4659   13.2006   23.9375 C    0  0  0  0  0  0  0  0  0  0  0  0
    6.3800   14.1733   23.6895 N    0  0  0  0  0  0  0  0  0  0  0  0
    5.5003   14.2213   22.6493 C    0  0  0  0  0  0  0  0  0  0  0  0
    5.6538   13.4297   21.7344 O    0  0  0  0  0  0  0  0  0  0  0  0
    4.5405   15.4648   22.8189 C    0  0  0  0  0  0  0  0  0  0  0  0
    5.1710   16.8702   22.9898 C    0  0  0  0  0  0  0  0  0  0  0  0
    3.4948   14.8858   23.8538 C    0  0  0  0  0  0  0  0  0  0  0  0
    2.4132   15.4373   22.8609 C    0  0  0  0  0  0  0  0  0  0  0  0
    3.4388   15.1852   21.7113 C    0  0  0  0  0  0  0  0  0  0  0  0
    8.7644   13.9339   24.3123 C    0  0  0  0  0  0  0  0  0  0  0  0
    9.2360   13.8071   25.4287 O    0  0  0  0  0  0  0  0  0  0  0  0
    9.4147   14.6970   23.3609 N    0  0  0  0  0  0  0  0  0  0  0  0
   10.6952   15.4216   23.5886 C    0  0  0  0  0  0  0  0  0  0  0  0
   11.2333   15.9322   22.2323 C    0  0  0  0  0  0  0  0  0  0  0  0
   10.4518   15.0786   21.2259 C    0  0  0  0  0  0  0  0  0  0  0  0
   10.3540   15.6353   19.8139 C    0  0  0  0  0  0  0  0  0  0  0  0
   10.6932   14.7597   18.8477 N    0  0  0  0  0  0  0  0  0  0  0  0
    9.8343   16.6962   19.5221 O    0  0  0  0  0  0  0  0  0  0  0  0
    9.0968   14.8379   21.9174 C    0  0  0  0  0  0  0  0  0  0  0  0
    7.9737    8.5343   22.9907 H    0  0  0  0  0  0  0  0  0  0  0  0
    9.1367    8.0847   24.2731 H    0  0  0  0  0  0  0  0  0  0  0  0
    9.7262    8.5447   22.6716 H    0  0  0  0  0  0  0  0  0  0  0  0
    7.4206    8.7896   25.7004 H    0  0  0  0  0  0  0  0  0  0  0  0
    5.6121    9.2820   27.2603 H    0  0  0  0  0  0  0  0  0  0  0  0
    4.7446   11.6056   27.4778 H    0  0  0  0  0  0  0  0  0  0  0  0
    5.6055   13.3812   26.0526 H    0  0  0  0  0  0  0  0  0  0  0  0
    7.6520   12.6707   23.0086 H    0  0  0  0  0  0  0  0  0  0  0  0
    6.2567   14.8510   24.4387 H    0  0  0  0  0  0  0  0  0  0  0  0
    4.4300   17.6661   22.8580 H    0  0  0  0  0  0  0  0  0  0  0  0
    5.9730   17.0305   22.2646 H    0  0  0  0  0  0  0  0  0  0  0  0
    5.5986   16.9887   23.9855 H    0  0  0  0  0  0  0  0  0  0  0  0
    3.4944   15.3514   24.8451 H    0  0  0  0  0  0  0  0  0  0  0  0
    3.4427   13.7976   24.0027 H    0  0  0  0  0  0  0  0  0  0  0  0
    2.1294   16.4865   23.0094 H    0  0  0  0  0  0  0  0  0  0  0  0
    1.4918   14.8516   22.8028 H    0  0  0  0  0  0  0  0  0  0  0  0
    3.4062   15.8983   20.8805 H    0  0  0  0  0  0  0  0  0  0  0  0
    3.2978   14.1861   21.2794 H    0  0  0  0  0  0  0  0  0  0  0  0
   11.4304   14.7482   24.0422 H    0  0  0  0  0  0  0  0  0  0  0  0
   10.5370   16.2618   24.2716 H    0  0  0  0  0  0  0  0  0  0  0  0
   12.3135   15.7746   22.1390 H    0  0  0  0  0  0  0  0  0  0  0  0
   11.0286   17.0025   22.1061 H    0  0  0  0  0  0  0  0  0  0  0  0
   10.9662   14.1048   21.1862 H    0  0  0  0  0  0  0  0  0  0  0  0
   10.6636   15.0528   17.8858 H    0  0  0  0  0  0  0  0  0  0  0  0
   10.8674   13.7776   19.0736 H    0  0  0  0  0  0  0  0  0  0  0  0
    8.6410   13.9477   21.4823 H    0  0  0  0  0  0  0  0  0  0  0  0
    8.4073   15.6772   21.7698 H    0  0  0  0  0  0  0  0  0  0  0  0
  8  9  1  0  0  0  0
  7  8  2  0  0  0  0
  6  7  1  0  0  0  0
  5  6  2  0  0  0  0
  4  5  1  0  0  0  0
  3  4  2  0  0  0  0
  2  3  1  0  0  0  0
  1  2  1  0  0  0  0
 28  1  1  0  0  0  0
 29  1  1  0  0  0  0
 30  1  1  0  0  0  0
 31  4  1  0  0  0  0
 32  5  1  0  0  0  0
 33  6  1  0  0  0  0
 34  7  1  0  0  0  0
 10  9  1  0  0  0  0
 18  9  1  0  0  0  0
 35  9  1  0  0  0  0
 11 10  1  0  0  0  0
 36 10  1  0  0  0  0
 12 11  2  0  0  0  0
 13 11  1  0  0  0  0
 14 13  1  0  0  0  0
 15 13  1  0  0  0  0
 37 14  1  0  0  0  0
 38 14  1  0  0  0  0
 39 14  1  0  0  0  0
 16 15  1  0  0  0  0
 40 15  1  0  0  0  0
 41 15  1  0  0  0  0
 17 16  1  0  0  0  0
 42 16  1  0  0  0  0
 43 16  1  0  0  0  0
 44 17  1  0  0  0  0
 45 17  1  0  0  0  0
 19 18  2  0  0  0  0
 20 18  1  0  0  0  0
 21 20  1  0  0  0  0
 22 21  1  0  0  0  0
 46 21  1  0  0  0  0
 47 21  1  0  0  0  0
 23 22  1  0  0  0  0
 48 22  1  0  0  0  0
 49 22  1  0  0  0  0
 24 23  1  0  0  0  0
 27 23  1  0  0  0  0
 50 23  1  0  0  0  0
 25 24  1  0  0  0  0
 26 24  2  0  0  0  0
 51 25  1  0  0  0  0
 52 25  1  0  0  0  0
 53 27  1  0  0  0  0
 54 27  1  0  0  0  0
  8  3  1  0  0  0  0
 17 13  1  0  0  0  0
 27 20  1  0  0  0  0
M  END
>  <FittedScore>
-38.39

$$$$
