A71EV2A-x4874a_best-RMSD
  FITTED

 36 37     0  0  0  0  0  0  0999 V2000
    9.7317   16.6490   19.2541 O    0  0  0  0  0  0  0  0  0  0  0  0
   10.1627   15.5948   19.6871 C    0  0  0  0  0  0  0  0  0  0  0  0
   10.6209   14.6609   18.8345 N    0  0  0  0  0  0  0  0  0  0  0  0
   10.0068   15.1490   21.1421 C    0  0  0  0  0  0  0  0  0  0  0  0
   10.9431   15.9614   22.0922 C    0  0  0  0  0  0  0  0  0  0  0  0
   10.6568   15.6288   23.5836 C    0  0  0  0  0  0  0  0  0  0  0  0
    9.1375   15.7208   23.8934 C    0  0  0  0  0  0  0  0  0  0  0  0
    8.5065   15.1987   21.5924 C    0  0  0  0  0  0  0  0  0  0  0  0
    8.3264   14.8029   23.0272 N    0  0  0  0  0  0  0  0  0  0  0  0
    7.5853   13.7104   23.4206 C    0  0  0  0  0  0  0  0  0  0  0  0
    6.9001   13.0876   22.6210 O    0  0  0  0  0  0  0  0  0  0  0  0
    7.7592   13.1188   24.8334 C    0  0  0  0  0  0  0  0  0  0  0  0
    6.4797   13.3629   25.6771 C    0  0  0  0  0  0  0  0  0  0  0  0
    8.2093   11.6800   24.6730 C    0  0  0  0  0  0  0  0  0  0  0  0
    7.5665   10.5794   25.1392 N    0  0  0  0  0  0  0  0  0  0  0  0
    8.1049    9.4022   24.7294 N    0  0  0  0  0  0  0  0  0  0  0  0
    9.2713    9.8964   23.9629 C    0  0  0  0  0  0  0  0  0  0  0  0
    9.3044   11.2711   23.9451 C    0  0  0  0  0  0  0  0  0  0  0  0
   10.5988   14.8463   17.8406 H    0  0  0  0  0  0  0  0  0  0  0  0
   10.7943   13.7063   19.1487 H    0  0  0  0  0  0  0  0  0  0  0  0
   10.3151   14.0997   21.2315 H    0  0  0  0  0  0  0  0  0  0  0  0
   11.9879   15.7348   21.8636 H    0  0  0  0  0  0  0  0  0  0  0  0
   10.8102   17.0349   21.9290 H    0  0  0  0  0  0  0  0  0  0  0  0
   11.0257   14.6268   23.8186 H    0  0  0  0  0  0  0  0  0  0  0  0
   11.2038   16.3246   24.2255 H    0  0  0  0  0  0  0  0  0  0  0  0
    8.9771   15.5946   24.9606 H    0  0  0  0  0  0  0  0  0  0  0  0
    8.8050   16.7518   23.7254 H    0  0  0  0  0  0  0  0  0  0  0  0
    7.9256   14.5741   20.9042 H    0  0  0  0  0  0  0  0  0  0  0  0
    8.1049   16.2097   21.4585 H    0  0  0  0  0  0  0  0  0  0  0  0
    8.5756   13.5612   25.3996 H    0  0  0  0  0  0  0  0  0  0  0  0
    6.5936   12.9563   26.6842 H    0  0  0  0  0  0  0  0  0  0  0  0
    5.6077   12.8939   25.2174 H    0  0  0  0  0  0  0  0  0  0  0  0
    6.2793   14.4317   25.7640 H    0  0  0  0  0  0  0  0  0  0  0  0
    6.6411   10.6445   25.5504 H    0  0  0  0  0  0  0  0  0  0  0  0
    9.9825    9.2316   23.4774 H    0  0  0  0  0  0  0  0  0  0  0  0
   10.0174   11.8991   23.4164 H    0  0  0  0  0  0  0  0  0  0  0  0
  7  9  1  0  0  0  0
  6  7  1  0  0  0  0
  5  6  1  0  0  0  0
  4  5  1  0  0  0  0
  2  4  1  0  0  0  0
  1  2  2  0  0  0  0
  3  2  1  0  0  0  0
 19  3  1  0  0  0  0
 20  3  1  0  0  0  0
 21  4  1  0  0  0  0
 22  5  1  0  0  0  0
 23  5  1  0  0  0  0
 24  6  1  0  0  0  0
 25  6  1  0  0  0  0
 26  7  1  0  0  0  0
 27  7  1  0  0  0  0
  8  4  1  0  0  0  0
 28  8  1  0  0  0  0
 29  8  1  0  0  0  0
 10  9  1  0  0  0  0
 11 10  2  0  0  0  0
 12 10  1  0  0  0  0
 13 12  1  0  0  0  0
 30 12  1  0  0  0  0
 31 13  1  0  0  0  0
 32 13  1  0  0  0  0
 33 13  1  0  0  0  0
 14 12  1  0  0  0  0
 18 14  2  0  0  0  0
 15 14  1  0  0  0  0
 34 15  1  0  0  0  0
 16 15  1  0  0  0  0
 17 16  2  0  0  0  0
 35 17  1  0  0  0  0
 36 18  1  0  0  0  0
  9  8  1  0  0  0  0
 18 17  1  0  0  0  0
M  END
>  <FittedScore>
-33.89

$$$$
