A71EV2A-x3868a_best-RMSD
  FITTED

 42 43     0  0  0  0  0  0  0999 V2000
    9.8490   16.8896   19.2581 O    0  0  0  0  0  0  0  0  0  0  0  0
   10.3831   15.8608   19.6228 C    0  0  0  0  0  0  0  0  0  0  0  0
   10.7496   14.9560   18.7004 N    0  0  0  0  0  0  0  0  0  0  0  0
   10.6092   15.4711   21.0889 C    0  0  0  0  0  0  0  0  0  0  0  0
   11.2718   16.6412   21.8794 C    0  0  0  0  0  0  0  0  0  0  0  0
   11.3068   16.3408   23.3950 C    0  0  0  0  0  0  0  0  0  0  0  0
    9.9019   15.9833   23.9199 C    0  0  0  0  0  0  0  0  0  0  0  0
    9.2878   14.9472   21.7497 C    0  0  0  0  0  0  0  0  0  0  0  0
    9.3222   14.7841   23.2424 N    0  0  0  0  0  0  0  0  0  0  0  0
    8.8509   13.7030   23.9654 C    0  0  0  0  0  0  0  0  0  0  0  0
    9.4682   13.3520   24.9617 O    0  0  0  0  0  0  0  0  0  0  0  0
    7.5894   13.1730   23.7120 N    0  0  0  0  0  0  0  0  0  0  0  0
    6.6074   13.7281   22.7297 C    0  0  0  0  0  0  0  0  0  0  0  0
    7.0581   12.1102   24.5551 C    0  0  0  0  0  0  0  0  0  0  0  0
    7.5691   10.7889   24.5150 C    0  0  0  0  0  0  0  0  0  0  0  0
    8.6349   10.5038   23.6699 O    0  0  0  0  0  0  0  0  0  0  0  0
    9.3038    9.2282   23.5884 C    0  0  0  0  0  0  0  0  0  0  0  0
    6.0057   12.4120   25.4464 C    0  0  0  0  0  0  0  0  0  0  0  0
    5.4332   11.4137   26.2460 C    0  0  0  0  0  0  0  0  0  0  0  0
    5.9158   10.1042   26.1761 C    0  0  0  0  0  0  0  0  0  0  0  0
    6.9706    9.7924   25.3135 C    0  0  0  0  0  0  0  0  0  0  0  0
   11.0557   14.0321   18.9870 H    0  0  0  0  0  0  0  0  0  0  0  0
   10.6777   15.1783   17.7111 H    0  0  0  0  0  0  0  0  0  0  0  0
   11.3285   14.6451   21.1302 H    0  0  0  0  0  0  0  0  0  0  0  0
   12.2907   16.8026   21.5172 H    0  0  0  0  0  0  0  0  0  0  0  0
   10.7337   17.5820   21.7217 H    0  0  0  0  0  0  0  0  0  0  0  0
   12.0051   15.5243   23.6028 H    0  0  0  0  0  0  0  0  0  0  0  0
   11.6732   17.2201   23.9280 H    0  0  0  0  0  0  0  0  0  0  0  0
    9.9558   15.8571   25.0052 H    0  0  0  0  0  0  0  0  0  0  0  0
    9.2252   16.8291   23.7631 H    0  0  0  0  0  0  0  0  0  0  0  0
    9.0722   13.9809   21.2865 H    0  0  0  0  0  0  0  0  0  0  0  0
    8.4630   15.6164   21.4887 H    0  0  0  0  0  0  0  0  0  0  0  0
    5.6020   13.3193   22.8524 H    0  0  0  0  0  0  0  0  0  0  0  0
    6.9013   13.4727   21.7119 H    0  0  0  0  0  0  0  0  0  0  0  0
    6.5192   14.8116   22.8297 H    0  0  0  0  0  0  0  0  0  0  0  0
    8.6046    8.4858   23.2029 H    0  0  0  0  0  0  0  0  0  0  0  0
    9.6942    8.9283   24.5606 H    0  0  0  0  0  0  0  0  0  0  0  0
   10.1454    9.3056   22.8976 H    0  0  0  0  0  0  0  0  0  0  0  0
    5.6228   13.4264   25.5143 H    0  0  0  0  0  0  0  0  0  0  0  0
    4.6142   11.6602   26.9149 H    0  0  0  0  0  0  0  0  0  0  0  0
    5.4703    9.3257   26.7910 H    0  0  0  0  0  0  0  0  0  0  0  0
    7.3140    8.7632   25.2851 H    0  0  0  0  0  0  0  0  0  0  0  0
  9 10  1  0  0  0  0
  7  9  1  0  0  0  0
  6  7  1  0  0  0  0
  5  6  1  0  0  0  0
  4  5  1  0  0  0  0
  2  4  1  0  0  0  0
  1  2  2  0  0  0  0
  3  2  1  0  0  0  0
 22  3  1  0  0  0  0
 23  3  1  0  0  0  0
 24  4  1  0  0  0  0
 25  5  1  0  0  0  0
 26  5  1  0  0  0  0
 27  6  1  0  0  0  0
 28  6  1  0  0  0  0
 29  7  1  0  0  0  0
 30  7  1  0  0  0  0
  8  4  1  0  0  0  0
 31  8  1  0  0  0  0
 32  8  1  0  0  0  0
 11 10  2  0  0  0  0
 12 10  1  0  0  0  0
 13 12  1  0  0  0  0
 33 13  1  0  0  0  0
 34 13  1  0  0  0  0
 35 13  1  0  0  0  0
 14 12  1  0  0  0  0
 15 14  1  0  0  0  0
 21 15  2  0  0  0  0
 16 15  1  0  0  0  0
 17 16  1  0  0  0  0
 36 17  1  0  0  0  0
 37 17  1  0  0  0  0
 38 17  1  0  0  0  0
 18 14  2  0  0  0  0
 39 18  1  0  0  0  0
 19 18  1  0  0  0  0
 40 19  1  0  0  0  0
 20 19  2  0  0  0  0
 41 20  1  0  0  0  0
 42 21  1  0  0  0  0
  9  8  1  0  0  0  0
 21 20  1  0  0  0  0
M  END
>  <FittedScore>
-28.44

$$$$
