A71EV2A-x3868a_lowest-energy
  FITTED

 42 43     0  0  0  0  0  0  0999 V2000
   10.0492   16.8622   18.9955 O    0  0  0  0  0  0  0  0  0  0  0  0
   10.5894   15.8667   19.4388 C    0  0  0  0  0  0  0  0  0  0  0  0
   10.9308   14.8812   18.5951 N    0  0  0  0  0  0  0  0  0  0  0  0
   10.5675   15.4637   20.9123 C    0  0  0  0  0  0  0  0  0  0  0  0
   11.1505   16.5690   21.8439 C    0  0  0  0  0  0  0  0  0  0  0  0
   10.9631   16.2201   23.3477 C    0  0  0  0  0  0  0  0  0  0  0  0
    9.5049   15.7745   23.6563 C    0  0  0  0  0  0  0  0  0  0  0  0
    9.1257   15.0434   21.3349 C    0  0  0  0  0  0  0  0  0  0  0  0
    9.0324   14.6586   22.7744 N    0  0  0  0  0  0  0  0  0  0  0  0
    8.3283   13.5549   23.1963 C    0  0  0  0  0  0  0  0  0  0  0  0
    7.3485   13.1878   22.5622 O    0  0  0  0  0  0  0  0  0  0  0  0
    8.7586   12.8552   24.3125 N    0  0  0  0  0  0  0  0  0  0  0  0
   10.1578   12.8366   24.8356 C    0  0  0  0  0  0  0  0  0  0  0  0
    7.8824   11.8764   24.9082 C    0  0  0  0  0  0  0  0  0  0  0  0
    7.9032   10.5257   24.4938 C    0  0  0  0  0  0  0  0  0  0  0  0
    8.8129   10.1216   23.5252 O    0  0  0  0  0  0  0  0  0  0  0  0
    9.6673    8.9724   23.7129 C    0  0  0  0  0  0  0  0  0  0  0  0
    6.9703   12.2930   25.8933 C    0  0  0  0  0  0  0  0  0  0  0  0
    6.0690   11.3756   26.4536 C    0  0  0  0  0  0  0  0  0  0  0  0
    6.0716   10.0428   26.0282 C    0  0  0  0  0  0  0  0  0  0  0  0
    6.9811    9.6196   25.0477 C    0  0  0  0  0  0  0  0  0  0  0  0
   10.9047   15.0370   17.5942 H    0  0  0  0  0  0  0  0  0  0  0  0
   11.1133   13.9438   18.9472 H    0  0  0  0  0  0  0  0  0  0  0  0
   11.2112   14.5842   21.0500 H    0  0  0  0  0  0  0  0  0  0  0  0
   12.2152   16.7011   21.6333 H    0  0  0  0  0  0  0  0  0  0  0  0
   10.6677   17.5295   21.6427 H    0  0  0  0  0  0  0  0  0  0  0  0
   11.6626   15.4311   23.6344 H    0  0  0  0  0  0  0  0  0  0  0  0
   11.2073   17.0943   23.9555 H    0  0  0  0  0  0  0  0  0  0  0  0
    9.4125   15.5286   24.7149 H    0  0  0  0  0  0  0  0  0  0  0  0
    8.8315   16.6283   23.5265 H    0  0  0  0  0  0  0  0  0  0  0  0
    8.8256   14.2075   20.6969 H    0  0  0  0  0  0  0  0  0  0  0  0
    8.4147   15.8499   21.1326 H    0  0  0  0  0  0  0  0  0  0  0  0
   10.2744   13.5760   25.6291 H    0  0  0  0  0  0  0  0  0  0  0  0
   10.8847   13.0261   24.0442 H    0  0  0  0  0  0  0  0  0  0  0  0
   10.4180   11.8693   25.2716 H    0  0  0  0  0  0  0  0  0  0  0  0
   10.2604    9.0912   24.6235 H    0  0  0  0  0  0  0  0  0  0  0  0
   10.3474    8.8944   22.8643 H    0  0  0  0  0  0  0  0  0  0  0  0
    9.0812    8.0551   23.7767 H    0  0  0  0  0  0  0  0  0  0  0  0
    6.9547   13.3323   26.2195 H    0  0  0  0  0  0  0  0  0  0  0  0
    5.3698   11.7032   27.2175 H    0  0  0  0  0  0  0  0  0  0  0  0
    5.3682    9.3327   26.4557 H    0  0  0  0  0  0  0  0  0  0  0  0
    6.9596    8.5836   24.7226 H    0  0  0  0  0  0  0  0  0  0  0  0
  9 10  1  0  0  0  0
  7  9  1  0  0  0  0
  6  7  1  0  0  0  0
  5  6  1  0  0  0  0
  4  5  1  0  0  0  0
  2  4  1  0  0  0  0
  1  2  2  0  0  0  0
  3  2  1  0  0  0  0
 22  3  1  0  0  0  0
 23  3  1  0  0  0  0
 24  4  1  0  0  0  0
 25  5  1  0  0  0  0
 26  5  1  0  0  0  0
 27  6  1  0  0  0  0
 28  6  1  0  0  0  0
 29  7  1  0  0  0  0
 30  7  1  0  0  0  0
  8  4  1  0  0  0  0
 31  8  1  0  0  0  0
 32  8  1  0  0  0  0
 11 10  2  0  0  0  0
 12 10  1  0  0  0  0
 13 12  1  0  0  0  0
 33 13  1  0  0  0  0
 34 13  1  0  0  0  0
 35 13  1  0  0  0  0
 14 12  1  0  0  0  0
 15 14  1  0  0  0  0
 21 15  2  0  0  0  0
 16 15  1  0  0  0  0
 17 16  1  0  0  0  0
 36 17  1  0  0  0  0
 37 17  1  0  0  0  0
 38 17  1  0  0  0  0
 18 14  2  0  0  0  0
 39 18  1  0  0  0  0
 19 18  1  0  0  0  0
 40 19  1  0  0  0  0
 20 19  2  0  0  0  0
 41 20  1  0  0  0  0
 42 21  1  0  0  0  0
  9  8  1  0  0  0  0
 21 20  1  0  0  0  0
M  END
>  <FittedScore>
-30.65

$$$$
