A71EV2A-x5022b_best-RMSD
  FITTED

 48 50     0  0  0  0  0  0  0999 V2000
    9.9503   16.8432   19.2137 O    0  0  0  0  0  0  0  0  0  0  0  0
   10.4878   15.8065   19.5562 C    0  0  0  0  0  0  0  0  0  0  0  0
   10.7847   14.8460   18.6543 N    0  0  0  0  0  0  0  0  0  0  0  0
   10.6016   15.3702   21.0154 C    0  0  0  0  0  0  0  0  0  0  0  0
   11.4647   16.3664   21.8415 C    0  0  0  0  0  0  0  0  0  0  0  0
   11.5190   15.9150   23.3233 C    0  0  0  0  0  0  0  0  0  0  0  0
   10.0994   15.6717   23.9093 C    0  0  0  0  0  0  0  0  0  0  0  0
    9.1925   15.1838   21.6616 C    0  0  0  0  0  0  0  0  0  0  0  0
    9.2417   14.7367   23.0915 N    0  0  0  0  0  0  0  0  0  0  0  0
    8.4622   13.7013   23.5629 C    0  0  0  0  0  0  0  0  0  0  0  0
    7.6407   13.1240   22.8659 O    0  0  0  0  0  0  0  0  0  0  0  0
    8.5523   13.4148   24.8886 N    0  0  0  0  0  0  0  0  0  0  0  0
    7.8438   12.3777   25.5686 C    0  0  0  0  0  0  0  0  0  0  0  0
    8.1325   11.0037   25.3795 C    0  0  0  0  0  0  0  0  0  0  0  0
    9.5721   10.5072   24.4308 S    0  0  0  0  0  0  0  0  0  0  0  0
    9.3981    8.7351   24.0548 C    0  0  0  0  0  0  0  0  0  0  0  0
    6.7789   12.7537   26.3977 C    0  0  0  0  0  0  0  0  0  0  0  0
    5.9636   11.7641   26.9643 C    0  0  0  0  0  0  0  0  0  0  0  0
    4.7799   12.1665   27.8495 C    0  0  0  0  0  0  0  0  0  0  0  0
    3.7194   11.0608   28.1014 C    0  0  0  0  0  0  0  0  0  0  0  0
    4.3871    9.6841   28.3492 C    0  0  0  0  0  0  0  0  0  0  0  0
    5.3350    9.2996   27.1838 C    0  0  0  0  0  0  0  0  0  0  0  0
    6.2567   10.4086   26.6816 C    0  0  0  0  0  0  0  0  0  0  0  0
    7.3320   10.0441   25.9249 N    0  0  0  0  0  0  0  0  0  0  0  0
   10.7464   15.0490   17.6602 H    0  0  0  0  0  0  0  0  0  0  0  0
   10.9683   13.8921   18.9659 H    0  0  0  0  0  0  0  0  0  0  0  0
   11.1056   14.3941   21.0697 H    0  0  0  0  0  0  0  0  0  0  0  0
   12.4769   16.4161   21.4278 H    0  0  0  0  0  0  0  0  0  0  0  0
   11.0483   17.3774   21.7834 H    0  0  0  0  0  0  0  0  0  0  0  0
   12.1102   14.9973   23.4015 H    0  0  0  0  0  0  0  0  0  0  0  0
   12.0318   16.6780   23.9137 H    0  0  0  0  0  0  0  0  0  0  0  0
   10.2461   15.3287   24.9327 H    0  0  0  0  0  0  0  0  0  0  0  0
    9.5759   16.6290   23.9935 H    0  0  0  0  0  0  0  0  0  0  0  0
    8.6528   14.4738   21.0323 H    0  0  0  0  0  0  0  0  0  0  0  0
    8.6106   16.1119   21.6053 H    0  0  0  0  0  0  0  0  0  0  0  0
    9.0212   14.0687   25.4978 H    0  0  0  0  0  0  0  0  0  0  0  0
    9.4269    8.1498   24.9754 H    0  0  0  0  0  0  0  0  0  0  0  0
   10.2386    8.4328   23.4290 H    0  0  0  0  0  0  0  0  0  0  0  0
    8.4603    8.5622   23.5246 H    0  0  0  0  0  0  0  0  0  0  0  0
    6.5653   13.8074   26.5681 H    0  0  0  0  0  0  0  0  0  0  0  0
    4.2758   13.0266   27.4006 H    0  0  0  0  0  0  0  0  0  0  0  0
    5.1721   12.5040   28.8130 H    0  0  0  0  0  0  0  0  0  0  0  0
    3.0526   10.9935   27.2361 H    0  0  0  0  0  0  0  0  0  0  0  0
    3.1016   11.3305   28.9619 H    0  0  0  0  0  0  0  0  0  0  0  0
    3.6183    8.9157   28.4726 H    0  0  0  0  0  0  0  0  0  0  0  0
    4.9565    9.7171   29.2831 H    0  0  0  0  0  0  0  0  0  0  0  0
    4.7352    8.9368   26.3431 H    0  0  0  0  0  0  0  0  0  0  0  0
    5.9451    8.4536   27.5097 H    0  0  0  0  0  0  0  0  0  0  0  0
 10 12  1  0  0  0  0
  9 10  1  0  0  0  0
  7  9  1  0  0  0  0
  6  7  1  0  0  0  0
  5  6  1  0  0  0  0
  4  5  1  0  0  0  0
  2  4  1  0  0  0  0
  1  2  2  0  0  0  0
  3  2  1  0  0  0  0
 25  3  1  0  0  0  0
 26  3  1  0  0  0  0
 27  4  1  0  0  0  0
 28  5  1  0  0  0  0
 29  5  1  0  0  0  0
 30  6  1  0  0  0  0
 31  6  1  0  0  0  0
 32  7  1  0  0  0  0
 33  7  1  0  0  0  0
  8  4  1  0  0  0  0
 34  8  1  0  0  0  0
 35  8  1  0  0  0  0
 11 10  2  0  0  0  0
 36 12  1  0  0  0  0
 13 12  1  0  0  0  0
 14 13  1  0  0  0  0
 24 14  2  0  0  0  0
 15 14  1  0  0  0  0
 16 15  1  0  0  0  0
 37 16  1  0  0  0  0
 38 16  1  0  0  0  0
 39 16  1  0  0  0  0
 17 13  2  0  0  0  0
 40 17  1  0  0  0  0
 18 17  1  0  0  0  0
 19 18  1  0  0  0  0
 41 19  1  0  0  0  0
 42 19  1  0  0  0  0
 20 19  1  0  0  0  0
 43 20  1  0  0  0  0
 44 20  1  0  0  0  0
 21 20  1  0  0  0  0
 45 21  1  0  0  0  0
 46 21  1  0  0  0  0
 22 21  1  0  0  0  0
 47 22  1  0  0  0  0
 48 22  1  0  0  0  0
 23 18  2  0  0  0  0
  9  8  1  0  0  0  0
 23 22  1  0  0  0  0
 24 23  1  0  0  0  0
M  END
>  <FittedScore>
-32.94

$$$$
