A71EV2A-x4794a_lowest-energy
  FITTED

 37 38     0  0  0  0  0  0  0999 V2000
    7.2900   13.1423   22.8519 O    0  0  0  0  0  0  0  0  0  0  0  0
    8.2675   13.5445   23.4562 C    0  0  0  0  0  0  0  0  0  0  0  0
    9.1546   14.4323   22.8836 N    0  0  0  0  0  0  0  0  0  0  0  0
    8.8956   15.0477   21.5422 C    0  0  0  0  0  0  0  0  0  0  0  0
   10.1423   15.1700   20.6281 C    0  0  0  0  0  0  0  0  0  0  0  0
    9.7840   15.8589   19.4360 O    0  0  0  0  0  0  0  0  0  0  0  0
   11.3146   15.8837   21.3447 C    0  0  0  0  0  0  0  0  0  0  0  0
   11.6112   15.2062   22.6969 C    0  0  0  0  0  0  0  0  0  0  0  0
   10.3361   15.0697   23.5683 C    0  0  0  0  0  0  0  0  0  0  0  0
    8.4936   13.0923   24.9090 C    0  0  0  0  0  0  0  0  0  0  0  0
    7.6089   11.9168   25.3326 C    0  0  0  0  0  0  0  0  0  0  0  0
    7.8571   10.5870   24.9015 C    0  0  0  0  0  0  0  0  0  0  0  0
    9.2571   10.2530   23.8263 S    0  0  0  0  0  0  0  0  0  0  0  0
    9.2733    8.4842   23.4055 C    0  0  0  0  0  0  0  0  0  0  0  0
    6.4940   12.1905   26.1465 C    0  0  0  0  0  0  0  0  0  0  0  0
    5.6603   11.1585   26.5814 C    0  0  0  0  0  0  0  0  0  0  0  0
    5.9190    9.8431   26.1860 C    0  0  0  0  0  0  0  0  0  0  0  0
    6.9913    9.5644   25.3286 C    0  0  0  0  0  0  0  0  0  0  0  0
    8.1474   14.4905   20.9702 H    0  0  0  0  0  0  0  0  0  0  0  0
    8.4548   16.0372   21.7046 H    0  0  0  0  0  0  0  0  0  0  0  0
   10.4615   14.1622   20.3422 H    0  0  0  0  0  0  0  0  0  0  0  0
   10.5364   15.8153   18.8172 H    0  0  0  0  0  0  0  0  0  0  0  0
   12.2081   15.8548   20.7121 H    0  0  0  0  0  0  0  0  0  0  0  0
   11.0751   16.9423   21.4999 H    0  0  0  0  0  0  0  0  0  0  0  0
   12.0419   14.2129   22.5284 H    0  0  0  0  0  0  0  0  0  0  0  0
   12.3626   15.7931   23.2349 H    0  0  0  0  0  0  0  0  0  0  0  0
   10.6598   14.5520   24.4669 H    0  0  0  0  0  0  0  0  0  0  0  0
   10.0373   16.0668   23.9067 H    0  0  0  0  0  0  0  0  0  0  0  0
    9.5281   12.7792   25.0579 H    0  0  0  0  0  0  0  0  0  0  0  0
    8.3414   13.9480   25.5721 H    0  0  0  0  0  0  0  0  0  0  0  0
    9.3705    7.8749   24.3099 H    0  0  0  0  0  0  0  0  0  0  0  0
   10.1561    8.3003   22.7930 H    0  0  0  0  0  0  0  0  0  0  0  0
    8.3762    8.1937   22.8607 H    0  0  0  0  0  0  0  0  0  0  0  0
    6.2751   13.2105   26.4497 H    0  0  0  0  0  0  0  0  0  0  0  0
    4.7999   11.3859   27.2064 H    0  0  0  0  0  0  0  0  0  0  0  0
    5.2766    9.0365   26.5300 H    0  0  0  0  0  0  0  0  0  0  0  0
    7.1290    8.5322   25.0206 H    0  0  0  0  0  0  0  0  0  0  0  0
  2  1  2  0  0  0  0
  3  2  1  0  0  0  0
  9  3  1  0  0  0  0
  4  3  1  0  0  0  0
 19  4  1  0  0  0  0
 20  4  1  0  0  0  0
  5  4  1  0  0  0  0
  6  5  1  0  0  0  0
 21  5  1  0  0  0  0
 22  6  1  0  0  0  0
  7  5  1  0  0  0  0
 23  7  1  0  0  0  0
 24  7  1  0  0  0  0
  8  7  1  0  0  0  0
 25  8  1  0  0  0  0
 26  8  1  0  0  0  0
 27  9  1  0  0  0  0
 28  9  1  0  0  0  0
 10  2  1  0  0  0  0
 29 10  1  0  0  0  0
 30 10  1  0  0  0  0
 11 10  1  0  0  0  0
 12 11  1  0  0  0  0
 18 12  2  0  0  0  0
 13 12  1  0  0  0  0
 14 13  1  0  0  0  0
 31 14  1  0  0  0  0
 32 14  1  0  0  0  0
 33 14  1  0  0  0  0
 15 11  2  0  0  0  0
 34 15  1  0  0  0  0
 16 15  1  0  0  0  0
 35 16  1  0  0  0  0
 17 16  2  0  0  0  0
 36 17  1  0  0  0  0
 37 18  1  0  0  0  0
  9  8  1  0  0  0  0
 18 17  1  0  0  0  0
M  END
>  <FittedScore>
-26.92

$$$$
