A71EV2A-x4794a_best-RMSD
  FITTED

 37 38     0  0  0  0  0  0  0999 V2000
    7.2458   13.1632   22.8903 O    0  0  0  0  0  0  0  0  0  0  0  0
    8.1984   13.6415   23.4858 C    0  0  0  0  0  0  0  0  0  0  0  0
    9.0360   14.5532   22.8789 N    0  0  0  0  0  0  0  0  0  0  0  0
    8.7394   15.1660   21.5452 C    0  0  0  0  0  0  0  0  0  0  0  0
    9.9449   15.1475   20.5737 C    0  0  0  0  0  0  0  0  0  0  0  0
    9.5872   15.8095   19.3621 O    0  0  0  0  0  0  0  0  0  0  0  0
   11.2087   15.7928   21.2005 C    0  0  0  0  0  0  0  0  0  0  0  0
   11.5106   15.1761   22.5851 C    0  0  0  0  0  0  0  0  0  0  0  0
   10.2594   15.1716   23.4991 C    0  0  0  0  0  0  0  0  0  0  0  0
    8.4490   13.2336   24.9426 C    0  0  0  0  0  0  0  0  0  0  0  0
    7.5972   12.0523   25.4294 C    0  0  0  0  0  0  0  0  0  0  0  0
    7.8146   10.7253   24.9654 C    0  0  0  0  0  0  0  0  0  0  0  0
    9.1801   10.3923   23.8377 S    0  0  0  0  0  0  0  0  0  0  0  0
    9.1530    8.6351   23.3797 C    0  0  0  0  0  0  0  0  0  0  0  0
    6.5682   12.3091   26.3537 C    0  0  0  0  0  0  0  0  0  0  0  0
    5.7499   11.2744   26.8185 C    0  0  0  0  0  0  0  0  0  0  0  0
    5.9342    9.9755   26.3392 C    0  0  0  0  0  0  0  0  0  0  0  0
    6.9492    9.7045   25.4081 C    0  0  0  0  0  0  0  0  0  0  0  0
    7.8946   14.6873   21.0368 H    0  0  0  0  0  0  0  0  0  0  0  0
    8.4143   16.2006   21.7151 H    0  0  0  0  0  0  0  0  0  0  0  0
   10.1642   14.1053   20.3177 H    0  0  0  0  0  0  0  0  0  0  0  0
   10.3130   15.7064   18.7187 H    0  0  0  0  0  0  0  0  0  0  0  0
   12.0690   15.6435   20.5400 H    0  0  0  0  0  0  0  0  0  0  0  0
   11.0654   16.8750   21.3054 H    0  0  0  0  0  0  0  0  0  0  0  0
   11.8769   14.1526   22.4649 H    0  0  0  0  0  0  0  0  0  0  0  0
   12.3057   15.7459   23.0688 H    0  0  0  0  0  0  0  0  0  0  0  0
   10.5661   14.7265   24.4417 H    0  0  0  0  0  0  0  0  0  0  0  0
   10.0107   16.2048   23.7596 H    0  0  0  0  0  0  0  0  0  0  0  0
    9.4893   12.9426   25.0925 H    0  0  0  0  0  0  0  0  0  0  0  0
    8.2895   14.1150   25.5676 H    0  0  0  0  0  0  0  0  0  0  0  0
    8.2057    8.3730   22.8998 H    0  0  0  0  0  0  0  0  0  0  0  0
    9.3064    8.0188   24.2664 H    0  0  0  0  0  0  0  0  0  0  0  0
    9.9632    8.4404   22.6750 H    0  0  0  0  0  0  0  0  0  0  0  0
    6.4013   13.3178   26.7253 H    0  0  0  0  0  0  0  0  0  0  0  0
    4.9701   11.4856   27.5465 H    0  0  0  0  0  0  0  0  0  0  0  0
    5.2837    9.1747   26.6796 H    0  0  0  0  0  0  0  0  0  0  0  0
    7.0402    8.6855   25.0499 H    0  0  0  0  0  0  0  0  0  0  0  0
  2  1  2  0  0  0  0
  3  2  1  0  0  0  0
  9  3  1  0  0  0  0
  4  3  1  0  0  0  0
 19  4  1  0  0  0  0
 20  4  1  0  0  0  0
  5  4  1  0  0  0  0
  6  5  1  0  0  0  0
 21  5  1  0  0  0  0
 22  6  1  0  0  0  0
  7  5  1  0  0  0  0
 23  7  1  0  0  0  0
 24  7  1  0  0  0  0
  8  7  1  0  0  0  0
 25  8  1  0  0  0  0
 26  8  1  0  0  0  0
 27  9  1  0  0  0  0
 28  9  1  0  0  0  0
 10  2  1  0  0  0  0
 29 10  1  0  0  0  0
 30 10  1  0  0  0  0
 11 10  1  0  0  0  0
 12 11  1  0  0  0  0
 18 12  2  0  0  0  0
 13 12  1  0  0  0  0
 14 13  1  0  0  0  0
 31 14  1  0  0  0  0
 32 14  1  0  0  0  0
 33 14  1  0  0  0  0
 15 11  2  0  0  0  0
 34 15  1  0  0  0  0
 16 15  1  0  0  0  0
 35 16  1  0  0  0  0
 17 16  2  0  0  0  0
 36 17  1  0  0  0  0
 37 18  1  0  0  0  0
  9  8  1  0  0  0  0
 18 17  1  0  0  0  0
M  END
>  <FittedScore>
-27.25

$$$$
