A71EV2A-x5764b_best-RMSD
  FITTED

 37 39     0  0  0  0  0  0  0999 V2000
   10.5652   14.7578   18.8497 N    0  0  0  0  0  0  0  0  0  0  0  0
   10.3834   15.6707   19.8201 C    0  0  0  0  0  0  0  0  0  0  0  0
    9.7924   16.7097   19.5819 O    0  0  0  0  0  0  0  0  0  0  0  0
   10.7442   15.1959   21.2213 C    0  0  0  0  0  0  0  0  0  0  0  0
   11.5729   16.1856   22.0476 C    0  0  0  0  0  0  0  0  0  0  0  0
   11.3078   15.7172   23.4885 C    0  0  0  0  0  0  0  0  0  0  0  0
    9.9943   15.0341   23.5182 N    0  0  0  0  0  0  0  0  0  0  0  0
    9.3643   14.6075   24.6638 C    0  0  0  0  0  0  0  0  0  0  0  0
    9.9362   14.6507   25.7433 O    0  0  0  0  0  0  0  0  0  0  0  0
    7.8816   14.1716   24.5808 C    0  0  0  0  0  0  0  0  0  0  0  0
    6.9509   15.2547   25.2037 C    0  0  0  0  0  0  0  0  0  0  0  0
    6.2070   14.5540   26.3654 C    0  0  0  0  0  0  0  0  0  0  0  0
    6.5393   13.0908   26.2415 C    0  0  0  0  0  0  0  0  0  0  0  0
    5.9164   12.0315   26.9178 C    0  0  0  0  0  0  0  0  0  0  0  0
    6.3065   10.7144   26.6277 C    0  0  0  0  0  0  0  0  0  0  0  0
    7.3164   10.4710   25.6804 C    0  0  0  0  0  0  0  0  0  0  0  0
    7.9438   11.5434   25.0170 C    0  0  0  0  0  0  0  0  0  0  0  0
    9.3220   11.1261   23.7771 BR   0  0  0  0  0  0  0  0  0  0  0  0
    7.5303   12.8662   25.2928 C    0  0  0  0  0  0  0  0  0  0  0  0
    9.5288   14.9039   22.1170 C    0  0  0  0  0  0  0  0  0  0  0  0
   10.7718   13.7843   19.0828 H    0  0  0  0  0  0  0  0  0  0  0  0
   10.4891   15.0300   17.8799 H    0  0  0  0  0  0  0  0  0  0  0  0
   11.3382   14.2713   21.1505 H    0  0  0  0  0  0  0  0  0  0  0  0
   11.2311   17.2164   21.9095 H    0  0  0  0  0  0  0  0  0  0  0  0
   12.6330   16.1316   21.7854 H    0  0  0  0  0  0  0  0  0  0  0  0
   11.3075   16.5764   24.1647 H    0  0  0  0  0  0  0  0  0  0  0  0
   12.0895   15.0213   23.8093 H    0  0  0  0  0  0  0  0  0  0  0  0
    7.5395   14.0278   23.5550 H    0  0  0  0  0  0  0  0  0  0  0  0
    6.2337   15.6098   24.4585 H    0  0  0  0  0  0  0  0  0  0  0  0
    7.5010   16.1272   25.5696 H    0  0  0  0  0  0  0  0  0  0  0  0
    5.1298   14.7183   26.2952 H    0  0  0  0  0  0  0  0  0  0  0  0
    6.5576   14.9347   27.3283 H    0  0  0  0  0  0  0  0  0  0  0  0
    5.1346   12.2261   27.6449 H    0  0  0  0  0  0  0  0  0  0  0  0
    5.8275    9.8817   27.1351 H    0  0  0  0  0  0  0  0  0  0  0  0
    7.6069    9.4444   25.4669 H    0  0  0  0  0  0  0  0  0  0  0  0
    8.7085   15.6064   21.9336 H    0  0  0  0  0  0  0  0  0  0  0  0
    9.1685   13.8935   21.9019 H    0  0  0  0  0  0  0  0  0  0  0  0
  7  8  1  0  0  0  0
  6  7  1  0  0  0  0
  5  6  1  0  0  0  0
  4  5  1  0  0  0  0
  2  4  1  0  0  0  0
  1  2  1  0  0  0  0
 21  1  1  0  0  0  0
 22  1  1  0  0  0  0
  3  2  2  0  0  0  0
 23  4  1  0  0  0  0
 24  5  1  0  0  0  0
 25  5  1  0  0  0  0
 26  6  1  0  0  0  0
 27  6  1  0  0  0  0
 20  7  1  0  0  0  0
  9  8  2  0  0  0  0
 10  8  1  0  0  0  0
 11 10  1  0  0  0  0
 28 10  1  0  0  0  0
 12 11  1  0  0  0  0
 29 11  1  0  0  0  0
 30 11  1  0  0  0  0
 13 12  1  0  0  0  0
 31 12  1  0  0  0  0
 32 12  1  0  0  0  0
 14 13  2  0  0  0  0
 15 14  1  0  0  0  0
 33 14  1  0  0  0  0
 16 15  2  0  0  0  0
 34 15  1  0  0  0  0
 17 16  1  0  0  0  0
 35 16  1  0  0  0  0
 18 17  1  0  0  0  0
 19 17  2  0  0  0  0
 36 20  1  0  0  0  0
 37 20  1  0  0  0  0
 19 10  1  0  0  0  0
 19 13  1  0  0  0  0
 20  4  1  0  0  0  0
M  END
>  <FittedScore>
-27.59

$$$$
