A71EV2A-x6818a_best-RMSD
  FITTED

 47 48     0  0  0  0  0  0  0999 V2000
    9.2239    8.6949   23.3366 C    0  0  0  0  0  0  0  0  0  0  0  0
    9.1802   10.4554   23.7840 S    0  0  0  0  0  0  0  0  0  0  0  0
    7.6967   10.7605   24.7676 C    0  0  0  0  0  0  0  0  0  0  0  0
    7.1606    9.7233   25.5585 C    0  0  0  0  0  0  0  0  0  0  0  0
    6.1236    9.9630   26.4654 C    0  0  0  0  0  0  0  0  0  0  0  0
    5.6163   11.2504   26.6173 C    0  0  0  0  0  0  0  0  0  0  0  0
    6.1206   12.2874   25.8319 C    0  0  0  0  0  0  0  0  0  0  0  0
    7.1017   12.0518   24.8411 C    0  0  0  0  0  0  0  0  0  0  0  0
    7.5547   13.1837   23.8878 C    0  0  0  0  0  0  0  0  0  0  0  0
    6.5582   14.2542   23.7088 N    0  0  0  0  0  0  0  0  0  0  0  0
    5.6174   14.3570   22.7450 C    0  0  0  0  0  0  0  0  0  0  0  0
    5.5205   13.5563   21.8281 O    0  0  0  0  0  0  0  0  0  0  0  0
    4.5884   15.4576   23.0158 C    0  0  0  0  0  0  0  0  0  0  0  0
    3.3827   14.9869   23.8858 C    0  0  0  0  0  0  0  0  0  0  0  0
    3.6914   14.2935   24.9981 F    0  0  0  0  0  0  0  0  0  0  0  0
    2.5836   14.2139   23.1474 F    0  0  0  0  0  0  0  0  0  0  0  0
    2.6508   16.0419   24.2790 F    0  0  0  0  0  0  0  0  0  0  0  0
    8.8604   13.8578   24.3199 C    0  0  0  0  0  0  0  0  0  0  0  0
    9.1660   13.8960   25.4974 O    0  0  0  0  0  0  0  0  0  0  0  0
    9.6071   14.5045   23.3660 N    0  0  0  0  0  0  0  0  0  0  0  0
   10.8023   15.3408   23.6353 C    0  0  0  0  0  0  0  0  0  0  0  0
   11.2878   15.9357   22.2964 C    0  0  0  0  0  0  0  0  0  0  0  0
   10.7096   14.9701   21.2496 C    0  0  0  0  0  0  0  0  0  0  0  0
   10.5068   15.5174   19.8273 C    0  0  0  0  0  0  0  0  0  0  0  0
   10.8855   14.7082   18.8139 N    0  0  0  0  0  0  0  0  0  0  0  0
    9.8556   16.5207   19.5782 O    0  0  0  0  0  0  0  0  0  0  0  0
    9.4034   14.4891   21.9022 C    0  0  0  0  0  0  0  0  0  0  0  0
    8.2814    8.3838   22.8797 H    0  0  0  0  0  0  0  0  0  0  0  0
    9.4345    8.0767   24.2161 H    0  0  0  0  0  0  0  0  0  0  0  0
   10.0300    8.5488   22.6192 H    0  0  0  0  0  0  0  0  0  0  0  0
    7.5785    8.7262   25.5246 H    0  0  0  0  0  0  0  0  0  0  0  0
    5.7381    9.1536   27.0725 H    0  0  0  0  0  0  0  0  0  0  0  0
    4.8328   11.4497   27.3402 H    0  0  0  0  0  0  0  0  0  0  0  0
    5.7395   13.2861   26.0144 H    0  0  0  0  0  0  0  0  0  0  0  0
    7.6794   12.6954   22.9250 H    0  0  0  0  0  0  0  0  0  0  0  0
    6.5187   14.9223   24.4693 H    0  0  0  0  0  0  0  0  0  0  0  0
    4.2037   15.8247   22.0591 H    0  0  0  0  0  0  0  0  0  0  0  0
    5.0576   16.3286   23.4904 H    0  0  0  0  0  0  0  0  0  0  0  0
   11.5840   14.7284   24.0897 H    0  0  0  0  0  0  0  0  0  0  0  0
   10.5467   16.1391   24.3369 H    0  0  0  0  0  0  0  0  0  0  0  0
   12.3760   15.9804   22.2494 H    0  0  0  0  0  0  0  0  0  0  0  0
   10.8897   16.9428   22.1686 H    0  0  0  0  0  0  0  0  0  0  0  0
   11.3897   14.1047   21.2084 H    0  0  0  0  0  0  0  0  0  0  0  0
   11.1509   13.7432   19.0156 H    0  0  0  0  0  0  0  0  0  0  0  0
   10.7738   15.0037   17.8469 H    0  0  0  0  0  0  0  0  0  0  0  0
    9.1927   13.4827   21.5304 H    0  0  0  0  0  0  0  0  0  0  0  0
    8.5558   15.1321   21.6502 H    0  0  0  0  0  0  0  0  0  0  0  0
  8  9  1  0  0  0  0
  7  8  2  0  0  0  0
  6  7  1  0  0  0  0
  5  6  2  0  0  0  0
  4  5  1  0  0  0  0
  3  4  2  0  0  0  0
  2  3  1  0  0  0  0
  1  2  1  0  0  0  0
 28  1  1  0  0  0  0
 29  1  1  0  0  0  0
 30  1  1  0  0  0  0
 31  4  1  0  0  0  0
 32  5  1  0  0  0  0
 33  6  1  0  0  0  0
 34  7  1  0  0  0  0
 10  9  1  0  0  0  0
 18  9  1  0  0  0  0
 35  9  1  0  0  0  0
 11 10  1  0  0  0  0
 36 10  1  0  0  0  0
 12 11  2  0  0  0  0
 13 11  1  0  0  0  0
 14 13  1  0  0  0  0
 37 13  1  0  0  0  0
 38 13  1  0  0  0  0
 15 14  1  0  0  0  0
 16 14  1  0  0  0  0
 17 14  1  0  0  0  0
 19 18  2  0  0  0  0
 20 18  1  0  0  0  0
 21 20  1  0  0  0  0
 22 21  1  0  0  0  0
 39 21  1  0  0  0  0
 40 21  1  0  0  0  0
 23 22  1  0  0  0  0
 41 22  1  0  0  0  0
 42 22  1  0  0  0  0
 24 23  1  0  0  0  0
 27 23  1  0  0  0  0
 43 23  1  0  0  0  0
 25 24  1  0  0  0  0
 26 24  2  0  0  0  0
 44 25  1  0  0  0  0
 45 25  1  0  0  0  0
 46 27  1  0  0  0  0
 47 27  1  0  0  0  0
  8  3  1  0  0  0  0
 27 20  1  0  0  0  0
M  END
>  <FittedScore>
-33.10

$$$$
