A71EV2A-x6818a_lowest-energy
  FITTED

 47 48     0  0  0  0  0  0  0999 V2000
    9.2573    8.8884   23.3725 C    0  0  0  0  0  0  0  0  0  0  0  0
    9.1850   10.6616   23.7789 S    0  0  0  0  0  0  0  0  0  0  0  0
    7.7046   10.9428   24.7611 C    0  0  0  0  0  0  0  0  0  0  0  0
    7.1952    9.9070   25.5726 C    0  0  0  0  0  0  0  0  0  0  0  0
    6.1365   10.1349   26.4593 C    0  0  0  0  0  0  0  0  0  0  0  0
    5.5817   11.4096   26.5658 C    0  0  0  0  0  0  0  0  0  0  0  0
    6.0511   12.4402   25.7491 C    0  0  0  0  0  0  0  0  0  0  0  0
    7.0673   12.2169   24.7869 C    0  0  0  0  0  0  0  0  0  0  0  0
    7.4767   13.3375   23.7958 C    0  0  0  0  0  0  0  0  0  0  0  0
    6.4339   14.3567   23.5932 N    0  0  0  0  0  0  0  0  0  0  0  0
    5.4693   14.3813   22.6505 C    0  0  0  0  0  0  0  0  0  0  0  0
    5.4076   13.5560   21.7542 O    0  0  0  0  0  0  0  0  0  0  0  0
    4.3941   15.4417   22.9079 C    0  0  0  0  0  0  0  0  0  0  0  0
    3.1571   14.8889   23.6732 C    0  0  0  0  0  0  0  0  0  0  0  0
    2.4577   14.0790   22.8700 F    0  0  0  0  0  0  0  0  0  0  0  0
    3.4314   14.2243   24.8126 F    0  0  0  0  0  0  0  0  0  0  0  0
    2.3279   15.8817   24.0180 F    0  0  0  0  0  0  0  0  0  0  0  0
    8.7419   14.0882   24.2182 C    0  0  0  0  0  0  0  0  0  0  0  0
    8.9866   14.2488   25.4021 O    0  0  0  0  0  0  0  0  0  0  0  0
    9.5189   14.6750   23.2492 N    0  0  0  0  0  0  0  0  0  0  0  0
   10.7346   15.4777   23.5196 C    0  0  0  0  0  0  0  0  0  0  0  0
   11.2695   16.0277   22.1823 C    0  0  0  0  0  0  0  0  0  0  0  0
   10.6848   15.0524   21.1516 C    0  0  0  0  0  0  0  0  0  0  0  0
   10.5430   15.5793   19.7226 C    0  0  0  0  0  0  0  0  0  0  0  0
   10.9197   14.7127   18.7620 N    0  0  0  0  0  0  0  0  0  0  0  0
    9.8836   16.5601   19.4296 O    0  0  0  0  0  0  0  0  0  0  0  0
    9.3521   14.6070   21.7796 C    0  0  0  0  0  0  0  0  0  0  0  0
    8.3130    8.5575   22.9368 H    0  0  0  0  0  0  0  0  0  0  0  0
    9.4961    8.3013   24.2615 H    0  0  0  0  0  0  0  0  0  0  0  0
   10.0511    8.7383   22.6411 H    0  0  0  0  0  0  0  0  0  0  0  0
    7.6371    8.9196   25.5655 H    0  0  0  0  0  0  0  0  0  0  0  0
    5.7588    9.3320   27.0846 H    0  0  0  0  0  0  0  0  0  0  0  0
    4.7842   11.6040   27.2762 H    0  0  0  0  0  0  0  0  0  0  0  0
    5.6101   13.4201   25.8840 H    0  0  0  0  0  0  0  0  0  0  0  0
    7.6225   12.8325   22.8442 H    0  0  0  0  0  0  0  0  0  0  0  0
    6.3777   15.0492   24.3343 H    0  0  0  0  0  0  0  0  0  0  0  0
    4.0638   15.8482   21.9435 H    0  0  0  0  0  0  0  0  0  0  0  0
    4.8103   16.3006   23.4495 H    0  0  0  0  0  0  0  0  0  0  0  0
   11.4896   14.8475   24.0005 H    0  0  0  0  0  0  0  0  0  0  0  0
   10.5014   16.3049   24.1970 H    0  0  0  0  0  0  0  0  0  0  0  0
   12.3626   16.0402   22.1574 H    0  0  0  0  0  0  0  0  0  0  0  0
   10.9069   17.0468   22.0223 H    0  0  0  0  0  0  0  0  0  0  0  0
   11.3503   14.1789   21.1510 H    0  0  0  0  0  0  0  0  0  0  0  0
   10.8492   14.9689   17.7849 H    0  0  0  0  0  0  0  0  0  0  0  0
   11.1080   13.7388   19.0125 H    0  0  0  0  0  0  0  0  0  0  0  0
    9.1471   13.5908   21.4331 H    0  0  0  0  0  0  0  0  0  0  0  0
    8.5204   15.2517   21.4775 H    0  0  0  0  0  0  0  0  0  0  0  0
  8  9  1  0  0  0  0
  7  8  2  0  0  0  0
  6  7  1  0  0  0  0
  5  6  2  0  0  0  0
  4  5  1  0  0  0  0
  3  4  2  0  0  0  0
  2  3  1  0  0  0  0
  1  2  1  0  0  0  0
 28  1  1  0  0  0  0
 29  1  1  0  0  0  0
 30  1  1  0  0  0  0
 31  4  1  0  0  0  0
 32  5  1  0  0  0  0
 33  6  1  0  0  0  0
 34  7  1  0  0  0  0
 10  9  1  0  0  0  0
 18  9  1  0  0  0  0
 35  9  1  0  0  0  0
 11 10  1  0  0  0  0
 36 10  1  0  0  0  0
 12 11  2  0  0  0  0
 13 11  1  0  0  0  0
 14 13  1  0  0  0  0
 37 13  1  0  0  0  0
 38 13  1  0  0  0  0
 15 14  1  0  0  0  0
 16 14  1  0  0  0  0
 17 14  1  0  0  0  0
 19 18  2  0  0  0  0
 20 18  1  0  0  0  0
 21 20  1  0  0  0  0
 22 21  1  0  0  0  0
 39 21  1  0  0  0  0
 40 21  1  0  0  0  0
 23 22  1  0  0  0  0
 41 22  1  0  0  0  0
 42 22  1  0  0  0  0
 24 23  1  0  0  0  0
 27 23  1  0  0  0  0
 43 23  1  0  0  0  0
 25 24  1  0  0  0  0
 26 24  2  0  0  0  0
 44 25  1  0  0  0  0
 45 25  1  0  0  0  0
 46 27  1  0  0  0  0
 47 27  1  0  0  0  0
  8  3  1  0  0  0  0
 27 20  1  0  0  0  0
M  END
>  <FittedScore>
-33.58

$$$$
