A71EV2A-x5022a_lowest-energy
  FITTED

 48 50     0  0  0  0  0  0  0999 V2000
   10.0737   16.8758   19.2419 O    0  0  0  0  0  0  0  0  0  0  0  0
   10.5383   15.7940   19.5595 C    0  0  0  0  0  0  0  0  0  0  0  0
   10.7915   14.8554   18.6276 N    0  0  0  0  0  0  0  0  0  0  0  0
   10.6193   15.3126   21.0005 C    0  0  0  0  0  0  0  0  0  0  0  0
   11.5408   16.2192   21.8646 C    0  0  0  0  0  0  0  0  0  0  0  0
   11.5294   15.7414   23.3406 C    0  0  0  0  0  0  0  0  0  0  0  0
   10.0851   15.5594   23.8877 C    0  0  0  0  0  0  0  0  0  0  0  0
    9.1923   15.2110   21.6163 C    0  0  0  0  0  0  0  0  0  0  0  0
    9.2018   14.6980   23.0217 N    0  0  0  0  0  0  0  0  0  0  0  0
    8.3685   13.6769   23.4286 C    0  0  0  0  0  0  0  0  0  0  0  0
    7.5360   13.1696   22.6933 O    0  0  0  0  0  0  0  0  0  0  0  0
    8.5179   13.2175   24.6962 N    0  0  0  0  0  0  0  0  0  0  0  0
    7.6579   12.2535   25.3087 C    0  0  0  0  0  0  0  0  0  0  0  0
    7.9726   10.8781   25.3556 C    0  0  0  0  0  0  0  0  0  0  0  0
    9.5627   10.2806   24.7848 S    0  0  0  0  0  0  0  0  0  0  0  0
    9.1972    8.7367   23.8813 C    0  0  0  0  0  0  0  0  0  0  0  0
    6.4017   12.6927   25.7626 C    0  0  0  0  0  0  0  0  0  0  0  0
    5.4690   11.7629   26.2376 C    0  0  0  0  0  0  0  0  0  0  0  0
    4.0900   12.2335   26.7171 C    0  0  0  0  0  0  0  0  0  0  0  0
    3.0274   11.1253   26.9579 C    0  0  0  0  0  0  0  0  0  0  0  0
    3.6544    9.8428   27.5578 C    0  0  0  0  0  0  0  0  0  0  0  0
    4.8443    9.3366   26.7045 C    0  0  0  0  0  0  0  0  0  0  0  0
    5.8377   10.3982   26.2470 C    0  0  0  0  0  0  0  0  0  0  0  0
    7.0649    9.9753   25.8220 N    0  0  0  0  0  0  0  0  0  0  0  0
   10.9581   13.8857   18.8922 H    0  0  0  0  0  0  0  0  0  0  0  0
   10.6766   15.0828   17.6486 H    0  0  0  0  0  0  0  0  0  0  0  0
   11.0532   14.3055   21.0266 H    0  0  0  0  0  0  0  0  0  0  0  0
   12.5640   16.1927   21.4741 H    0  0  0  0  0  0  0  0  0  0  0  0
   11.2021   17.2581   21.8135 H    0  0  0  0  0  0  0  0  0  0  0  0
   12.0785   14.7988   23.4220 H    0  0  0  0  0  0  0  0  0  0  0  0
   12.0620   16.4692   23.9559 H    0  0  0  0  0  0  0  0  0  0  0  0
   10.1819   15.1776   24.9022 H    0  0  0  0  0  0  0  0  0  0  0  0
    9.6130   16.5400   23.9936 H    0  0  0  0  0  0  0  0  0  0  0  0
    8.5911   14.5810   20.9507 H    0  0  0  0  0  0  0  0  0  0  0  0
    8.7077   16.1940   21.6024 H    0  0  0  0  0  0  0  0  0  0  0  0
    9.3040   13.5328   25.2575 H    0  0  0  0  0  0  0  0  0  0  0  0
    8.4914    8.9379   23.0711 H    0  0  0  0  0  0  0  0  0  0  0  0
    8.7677    7.9956   24.5577 H    0  0  0  0  0  0  0  0  0  0  0  0
   10.1211    8.3375   23.4580 H    0  0  0  0  0  0  0  0  0  0  0  0
    6.1490   13.7507   25.7211 H    0  0  0  0  0  0  0  0  0  0  0  0
    3.6863   12.9407   25.9863 H    0  0  0  0  0  0  0  0  0  0  0  0
    4.2173   12.7902   27.6487 H    0  0  0  0  0  0  0  0  0  0  0  0
    2.5424   10.8805   26.0051 H    0  0  0  0  0  0  0  0  0  0  0  0
    2.2404   11.4980   27.6230 H    0  0  0  0  0  0  0  0  0  0  0  0
    2.8934    9.0601   27.6287 H    0  0  0  0  0  0  0  0  0  0  0  0
    3.9948   10.0481   28.5764 H    0  0  0  0  0  0  0  0  0  0  0  0
    4.4572    8.8226   25.8178 H    0  0  0  0  0  0  0  0  0  0  0  0
    5.3764    8.5799   27.2856 H    0  0  0  0  0  0  0  0  0  0  0  0
 10 12  1  0  0  0  0
  9 10  1  0  0  0  0
  7  9  1  0  0  0  0
  6  7  1  0  0  0  0
  5  6  1  0  0  0  0
  4  5  1  0  0  0  0
  2  4  1  0  0  0  0
  1  2  2  0  0  0  0
  3  2  1  0  0  0  0
 25  3  1  0  0  0  0
 26  3  1  0  0  0  0
 27  4  1  0  0  0  0
 28  5  1  0  0  0  0
 29  5  1  0  0  0  0
 30  6  1  0  0  0  0
 31  6  1  0  0  0  0
 32  7  1  0  0  0  0
 33  7  1  0  0  0  0
  8  4  1  0  0  0  0
 34  8  1  0  0  0  0
 35  8  1  0  0  0  0
 11 10  2  0  0  0  0
 36 12  1  0  0  0  0
 13 12  1  0  0  0  0
 14 13  1  0  0  0  0
 24 14  2  0  0  0  0
 15 14  1  0  0  0  0
 16 15  1  0  0  0  0
 37 16  1  0  0  0  0
 38 16  1  0  0  0  0
 39 16  1  0  0  0  0
 17 13  2  0  0  0  0
 40 17  1  0  0  0  0
 18 17  1  0  0  0  0
 19 18  1  0  0  0  0
 41 19  1  0  0  0  0
 42 19  1  0  0  0  0
 20 19  1  0  0  0  0
 43 20  1  0  0  0  0
 44 20  1  0  0  0  0
 21 20  1  0  0  0  0
 45 21  1  0  0  0  0
 46 21  1  0  0  0  0
 22 21  1  0  0  0  0
 47 22  1  0  0  0  0
 48 22  1  0  0  0  0
 23 18  2  0  0  0  0
  9  8  1  0  0  0  0
 23 22  1  0  0  0  0
 24 23  1  0  0  0  0
M  END
>  <FittedScore>
-36.40

$$$$
