A71EV2A-x7169a_lowest-energy
  FITTED

 65 67     0  0  0  0  0  0  0999 V2000
    5.8169   16.4776   23.6793 C    0  0  0  0  0  0  0  0  0  0  0  0
    4.9694   16.4065   24.9880 C    0  0  0  0  0  0  0  0  0  0  0  0
    5.5123   15.5126   26.1750 C    0  0  0  0  0  0  0  0  0  0  0  0
    7.0131   15.9069   26.5245 C    0  0  0  0  0  0  0  0  0  0  0  0
    7.3285   17.3384   27.0304 C    0  0  0  0  0  0  0  0  0  0  0  0
    5.3934   13.9858   25.7636 C    0  0  0  0  0  0  0  0  0  0  0  0
    5.9181   12.9996   26.7574 N    0  0  0  0  0  0  0  0  0  0  0  0
    6.4739   11.8008   26.2721 C    0  0  0  0  0  0  0  0  0  0  0  0
    5.7946   10.6493   26.5826 N    0  0  0  0  0  0  0  0  0  0  0  0
    6.2288    9.4697   26.0736 C    0  0  0  0  0  0  0  0  0  0  0  0
    7.2958    9.3339   25.2453 N    0  0  0  0  0  0  0  0  0  0  0  0
    8.0200   10.4413   24.9356 C    0  0  0  0  0  0  0  0  0  0  0  0
    9.4304   10.2437   23.8376 S    0  0  0  0  0  0  0  0  0  0  0  0
    9.5964    8.4805   23.4578 C    0  0  0  0  0  0  0  0  0  0  0  0
    7.6554   11.7189   25.4542 C    0  0  0  0  0  0  0  0  0  0  0  0
    8.5333   12.9370   25.1034 C    0  0  0  0  0  0  0  0  0  0  0  0
    8.2469   13.5636   23.7204 C    0  0  0  0  0  0  0  0  0  0  0  0
    7.4141   13.0481   22.9845 O    0  0  0  0  0  0  0  0  0  0  0  0
    8.9706   14.6733   23.3143 N    0  0  0  0  0  0  0  0  0  0  0  0
   10.0050   15.4222   24.1158 C    0  0  0  0  0  0  0  0  0  0  0  0
   11.4183   15.4286   23.4596 C    0  0  0  0  0  0  0  0  0  0  0  0
   11.3699   15.9291   21.9937 C    0  0  0  0  0  0  0  0  0  0  0  0
   10.2824   15.1539   21.1993 C    0  0  0  0  0  0  0  0  0  0  0  0
   10.2277   15.6577   19.7571 C    0  0  0  0  0  0  0  0  0  0  0  0
   10.7702   14.8263   18.8498 N    0  0  0  0  0  0  0  0  0  0  0  0
    9.6559   16.6744   19.4102 O    0  0  0  0  0  0  0  0  0  0  0  0
    8.9006   15.2245   21.9225 C    0  0  0  0  0  0  0  0  0  0  0  0
    5.2590   13.0419   28.1103 C    0  0  0  0  0  0  0  0  0  0  0  0
    5.1041   14.4588   28.7344 C    0  0  0  0  0  0  0  0  0  0  0  0
    4.4075   15.6648   27.6106 S    0  0  0  0  0  0  0  0  0  0  0  0
    3.0759   15.2587   27.2511 O    0  0  0  0  0  0  0  0  0  0  0  0
    4.5292   16.9523   28.2232 O    0  0  0  0  0  0  0  0  0  0  0  0
    5.3048   17.1056   22.9505 H    0  0  0  0  0  0  0  0  0  0  0  0
    5.9529   15.5006   23.2152 H    0  0  0  0  0  0  0  0  0  0  0  0
    6.7946   16.9322   23.8415 H    0  0  0  0  0  0  0  0  0  0  0  0
    3.9695   16.0630   24.7056 H    0  0  0  0  0  0  0  0  0  0  0  0
    4.8087   17.4264   25.3435 H    0  0  0  0  0  0  0  0  0  0  0  0
    7.6248   15.7576   25.6458 H    0  0  0  0  0  0  0  0  0  0  0  0
    7.4373   15.2303   27.2647 H    0  0  0  0  0  0  0  0  0  0  0  0
    6.7332   18.1071   26.5334 H    0  0  0  0  0  0  0  0  0  0  0  0
    8.3784   17.5746   26.8481 H    0  0  0  0  0  0  0  0  0  0  0  0
    7.1668   17.4218   28.1079 H    0  0  0  0  0  0  0  0  0  0  0  0
    5.8264   13.8344   24.7932 H    0  0  0  0  0  0  0  0  0  0  0  0
    4.3527   13.7314   25.5519 H    0  0  0  0  0  0  0  0  0  0  0  0
    5.6813    8.5663   26.3369 H    0  0  0  0  0  0  0  0  0  0  0  0
   10.4814    8.3243   22.8375 H    0  0  0  0  0  0  0  0  0  0  0  0
    8.7155    8.1265   22.9200 H    0  0  0  0  0  0  0  0  0  0  0  0
    9.7147    7.9169   24.3838 H    0  0  0  0  0  0  0  0  0  0  0  0
    9.5909   12.6640   25.1727 H    0  0  0  0  0  0  0  0  0  0  0  0
    8.4384   13.6595   25.8994 H    0  0  0  0  0  0  0  0  0  0  0  0
   10.1268   15.0489   25.1335 H    0  0  0  0  0  0  0  0  0  0  0  0
    9.6702   16.4586   24.2370 H    0  0  0  0  0  0  0  0  0  0  0  0
   11.8375   14.4175   23.4840 H    0  0  0  0  0  0  0  0  0  0  0  0
   12.0936   16.0645   24.0393 H    0  0  0  0  0  0  0  0  0  0  0  0
   12.3455   15.7802   21.5252 H    0  0  0  0  0  0  0  0  0  0  0  0
   11.1673   17.0055   21.9771 H    0  0  0  0  0  0  0  0  0  0  0  0
   10.5720   14.0938   21.2073 H    0  0  0  0  0  0  0  0  0  0  0  0
   11.0162   13.8818   19.1353 H    0  0  0  0  0  0  0  0  0  0  0  0
   10.7778   15.0783   17.8658 H    0  0  0  0  0  0  0  0  0  0  0  0
    8.1694   14.7129   21.2942 H    0  0  0  0  0  0  0  0  0  0  0  0
    8.5520   16.2606   21.9658 H    0  0  0  0  0  0  0  0  0  0  0  0
    5.8234   12.4381   28.8253 H    0  0  0  0  0  0  0  0  0  0  0  0
    4.2564   12.6008   28.0713 H    0  0  0  0  0  0  0  0  0  0  0  0
    6.0700   14.8217   29.0925 H    0  0  0  0  0  0  0  0  0  0  0  0
    4.4570   14.4110   29.6113 H    0  0  0  0  0  0  0  0  0  0  0  0
 16 17  1  0  0  0  0
 15 16  1  0  0  0  0
 12 15  2  0  0  0  0
 11 12  1  0  0  0  0
 10 11  2  0  0  0  0
  9 10  1  0  0  0  0
  8  9  2  0  0  0  0
  7  8  1  0  0  0  0
  6  7  1  0  0  0  0
  3  6  1  0  0  0  0
  2  3  1  0  0  0  0
  1  2  1  0  0  0  0
 33  1  1  0  0  0  0
 34  1  1  0  0  0  0
 35  1  1  0  0  0  0
 36  2  1  0  0  0  0
 37  2  1  0  0  0  0
  4  3  1  0  0  0  0
  5  4  1  0  0  0  0
 38  4  1  0  0  0  0
 39  4  1  0  0  0  0
 40  5  1  0  0  0  0
 41  5  1  0  0  0  0
 42  5  1  0  0  0  0
 43  6  1  0  0  0  0
 44  6  1  0  0  0  0
 28  7  1  0  0  0  0
 45 10  1  0  0  0  0
 13 12  1  0  0  0  0
 14 13  1  0  0  0  0
 46 14  1  0  0  0  0
 47 14  1  0  0  0  0
 48 14  1  0  0  0  0
 49 16  1  0  0  0  0
 50 16  1  0  0  0  0
 18 17  2  0  0  0  0
 19 17  1  0  0  0  0
 20 19  1  0  0  0  0
 21 20  1  0  0  0  0
 51 20  1  0  0  0  0
 52 20  1  0  0  0  0
 22 21  1  0  0  0  0
 53 21  1  0  0  0  0
 54 21  1  0  0  0  0
 23 22  1  0  0  0  0
 55 22  1  0  0  0  0
 56 22  1  0  0  0  0
 24 23  1  0  0  0  0
 27 23  1  0  0  0  0
 57 23  1  0  0  0  0
 25 24  1  0  0  0  0
 26 24  2  0  0  0  0
 58 25  1  0  0  0  0
 59 25  1  0  0  0  0
 60 27  1  0  0  0  0
 61 27  1  0  0  0  0
 29 28  1  0  0  0  0
 62 28  1  0  0  0  0
 63 28  1  0  0  0  0
 30 29  1  0  0  0  0
 64 29  1  0  0  0  0
 65 29  1  0  0  0  0
 31 30  2  0  0  0  0
 32 30  2  0  0  0  0
 15  8  1  0  0  0  0
 27 19  1  0  0  0  0
 30  3  1  0  0  0  0
M  END
>  <FittedScore>
-36.41

$$$$
