A71EV2A-x3862a_lowest-energy
  FITTED

 44 45     0  0  0  0  0  0  0999 V2000
    8.9742   15.4351   27.7255 C    0  0  0  0  0  0  0  0  0  0  0  0
    8.7224   14.1485   27.1074 O    0  0  0  0  0  0  0  0  0  0  0  0
    7.4681   13.5975   26.8779 C    0  0  0  0  0  0  0  0  0  0  0  0
    6.3716   13.9122   27.7127 C    0  0  0  0  0  0  0  0  0  0  0  0
    5.1071   13.3665   27.4690 C    0  0  0  0  0  0  0  0  0  0  0  0
    4.9216   12.4882   26.3962 C    0  0  0  0  0  0  0  0  0  0  0  0
    6.0015   12.1524   25.5778 C    0  0  0  0  0  0  0  0  0  0  0  0
    7.2905   12.6914   25.7999 C    0  0  0  0  0  0  0  0  0  0  0  0
    8.4337   12.3018   24.8321 C    0  0  0  0  0  0  0  0  0  0  0  0
    8.3771   10.8590   24.6125 O    0  0  0  0  0  0  0  0  0  0  0  0
    9.4922   10.1674   24.0158 C    0  0  0  0  0  0  0  0  0  0  0  0
    8.2908   13.0915   23.5065 C    0  0  0  0  0  0  0  0  0  0  0  0
    7.3683   12.7830   22.7765 O    0  0  0  0  0  0  0  0  0  0  0  0
    9.0793   14.1765   23.1715 N    0  0  0  0  0  0  0  0  0  0  0  0
    9.9766   14.9618   24.0846 C    0  0  0  0  0  0  0  0  0  0  0  0
   11.3183   15.4628   23.4651 C    0  0  0  0  0  0  0  0  0  0  0  0
   11.1646   16.0969   22.0541 C    0  0  0  0  0  0  0  0  0  0  0  0
   10.3110   15.1572   21.1664 C    0  0  0  0  0  0  0  0  0  0  0  0
   10.1419   15.6636   19.7404 C    0  0  0  0  0  0  0  0  0  0  0  0
   10.3967   14.7242   18.8084 N    0  0  0  0  0  0  0  0  0  0  0  0
    9.5688   16.6978   19.4420 O    0  0  0  0  0  0  0  0  0  0  0  0
    8.9386   14.8731   21.8440 C    0  0  0  0  0  0  0  0  0  0  0  0
   10.0389   15.6618   27.6405 H    0  0  0  0  0  0  0  0  0  0  0  0
    8.7135   15.4097   28.7871 H    0  0  0  0  0  0  0  0  0  0  0  0
    8.4013   16.2181   27.2218 H    0  0  0  0  0  0  0  0  0  0  0  0
    6.4824   14.5796   28.5609 H    0  0  0  0  0  0  0  0  0  0  0  0
    4.2689   13.6246   28.1116 H    0  0  0  0  0  0  0  0  0  0  0  0
    3.9410   12.0662   26.1995 H    0  0  0  0  0  0  0  0  0  0  0  0
    5.8265   11.4685   24.7497 H    0  0  0  0  0  0  0  0  0  0  0  0
    9.4003   12.4593   25.3086 H    0  0  0  0  0  0  0  0  0  0  0  0
   10.3842   10.2756   24.6401 H    0  0  0  0  0  0  0  0  0  0  0  0
    9.7011   10.5555   23.0160 H    0  0  0  0  0  0  0  0  0  0  0  0
    9.2462    9.1086   23.9379 H    0  0  0  0  0  0  0  0  0  0  0  0
   10.2712   14.3889   24.9515 H    0  0  0  0  0  0  0  0  0  0  0  0
    9.4089   15.8168   24.4627 H    0  0  0  0  0  0  0  0  0  0  0  0
   12.0196   14.6243   23.3996 H    0  0  0  0  0  0  0  0  0  0  0  0
   11.7754   16.1907   24.1398 H    0  0  0  0  0  0  0  0  0  0  0  0
   12.1541   16.2425   21.6081 H    0  0  0  0  0  0  0  0  0  0  0  0
   10.7072   17.0896   22.1286 H    0  0  0  0  0  0  0  0  0  0  0  0
   10.8468   14.2025   21.1364 H    0  0  0  0  0  0  0  0  0  0  0  0
   10.4008   14.9686   17.8311 H    0  0  0  0  0  0  0  0  0  0  0  0
   10.5861   13.7587   19.0775 H    0  0  0  0  0  0  0  0  0  0  0  0
    8.3397   14.3027   21.1288 H    0  0  0  0  0  0  0  0  0  0  0  0
    8.3929   15.8077   21.9865 H    0  0  0  0  0  0  0  0  0  0  0  0
 12 14  1  0  0  0  0
  9 12  1  0  0  0  0
  8  9  1  0  0  0  0
  7  8  2  0  0  0  0
  6  7  1  0  0  0  0
  5  6  2  0  0  0  0
  4  5  1  0  0  0  0
  3  4  2  0  0  0  0
  2  3  1  0  0  0  0
  1  2  1  0  0  0  0
 23  1  1  0  0  0  0
 24  1  1  0  0  0  0
 25  1  1  0  0  0  0
 26  4  1  0  0  0  0
 27  5  1  0  0  0  0
 28  6  1  0  0  0  0
 29  7  1  0  0  0  0
 10  9  1  0  0  0  0
 30  9  1  0  0  0  0
 11 10  1  0  0  0  0
 31 11  1  0  0  0  0
 32 11  1  0  0  0  0
 33 11  1  0  0  0  0
 13 12  2  0  0  0  0
 15 14  1  0  0  0  0
 16 15  1  0  0  0  0
 34 15  1  0  0  0  0
 35 15  1  0  0  0  0
 17 16  1  0  0  0  0
 36 16  1  0  0  0  0
 37 16  1  0  0  0  0
 18 17  1  0  0  0  0
 38 17  1  0  0  0  0
 39 17  1  0  0  0  0
 19 18  1  0  0  0  0
 22 18  1  0  0  0  0
 40 18  1  0  0  0  0
 20 19  1  0  0  0  0
 21 19  2  0  0  0  0
 41 20  1  0  0  0  0
 42 20  1  0  0  0  0
 43 22  1  0  0  0  0
 44 22  1  0  0  0  0
  8  3  1  0  0  0  0
 22 14  1  0  0  0  0
M  END
>  <FittedScore>
-29.38

$$$$
