A71EV2A-x4712a_lowest-energy
  FITTED

 42 43     0  0  0  0  0  0  0999 V2000
    9.7737   16.6986   19.2700 O    0  0  0  0  0  0  0  0  0  0  0  0
   10.2726   15.6402   19.6014 C    0  0  0  0  0  0  0  0  0  0  0  0
   10.8623   14.8270   18.7045 N    0  0  0  0  0  0  0  0  0  0  0  0
   10.2052   15.0627   21.0103 C    0  0  0  0  0  0  0  0  0  0  0  0
   11.4373   15.4880   21.8567 C    0  0  0  0  0  0  0  0  0  0  0  0
   11.4181   14.7334   23.2080 C    0  0  0  0  0  0  0  0  0  0  0  0
   10.0481   14.8397   23.9360 C    0  0  0  0  0  0  0  0  0  0  0  0
    8.9061   15.4025   21.7898 C    0  0  0  0  0  0  0  0  0  0  0  0
    8.8110   14.6526   23.0797 N    0  0  0  0  0  0  0  0  0  0  0  0
    7.7420   13.8162   23.3566 C    0  0  0  0  0  0  0  0  0  0  0  0
    7.1081   13.2991   22.4504 O    0  0  0  0  0  0  0  0  0  0  0  0
    7.4139   13.5209   24.6687 N    0  0  0  0  0  0  0  0  0  0  0  0
    7.5317   14.5144   25.7855 C    0  0  0  0  0  0  0  0  0  0  0  0
    6.8250   12.2360   25.0223 C    0  0  0  0  0  0  0  0  0  0  0  0
    7.5372   11.0101   24.8884 C    0  0  0  0  0  0  0  0  0  0  0  0
    9.2105   10.9611   24.2178 S    0  0  0  0  0  0  0  0  0  0  0  0
    9.5042    9.2699   23.5992 C    0  0  0  0  0  0  0  0  0  0  0  0
    5.5133   12.2137   25.5449 C    0  0  0  0  0  0  0  0  0  0  0  0
    4.9211   11.0202   25.9688 C    0  0  0  0  0  0  0  0  0  0  0  0
    5.6252    9.8184   25.8615 C    0  0  0  0  0  0  0  0  0  0  0  0
    6.9170    9.8152   25.3208 C    0  0  0  0  0  0  0  0  0  0  0  0
   11.1082   13.8751   18.9735 H    0  0  0  0  0  0  0  0  0  0  0  0
   10.9509   15.1070   17.7356 H    0  0  0  0  0  0  0  0  0  0  0  0
   10.2147   13.9677   20.9280 H    0  0  0  0  0  0  0  0  0  0  0  0
   12.3621   15.2503   21.3245 H    0  0  0  0  0  0  0  0  0  0  0  0
   11.4287   16.5705   22.0294 H    0  0  0  0  0  0  0  0  0  0  0  0
   11.6526   13.6787   23.0341 H    0  0  0  0  0  0  0  0  0  0  0  0
   12.2093   15.1211   23.8557 H    0  0  0  0  0  0  0  0  0  0  0  0
   10.0918   14.0797   24.7125 H    0  0  0  0  0  0  0  0  0  0  0  0
    9.9868   15.8062   24.4407 H    0  0  0  0  0  0  0  0  0  0  0  0
    8.0447   15.2229   21.1357 H    0  0  0  0  0  0  0  0  0  0  0  0
    8.8660   16.4763   22.0078 H    0  0  0  0  0  0  0  0  0  0  0  0
    7.6317   15.5376   25.4196 H    0  0  0  0  0  0  0  0  0  0  0  0
    8.3954   14.2766   26.4109 H    0  0  0  0  0  0  0  0  0  0  0  0
    6.6634   14.5216   26.4455 H    0  0  0  0  0  0  0  0  0  0  0  0
    9.5776    8.5619   24.4280 H    0  0  0  0  0  0  0  0  0  0  0  0
   10.4527    9.2664   23.0654 H    0  0  0  0  0  0  0  0  0  0  0  0
    8.7039    8.9683   22.9217 H    0  0  0  0  0  0  0  0  0  0  0  0
    4.9400   13.1327   25.6277 H    0  0  0  0  0  0  0  0  0  0  0  0
    3.9165   11.0311   26.3847 H    0  0  0  0  0  0  0  0  0  0  0  0
    5.1651    8.8878   26.1892 H    0  0  0  0  0  0  0  0  0  0  0  0
    7.4259    8.8608   25.2619 H    0  0  0  0  0  0  0  0  0  0  0  0
  9 10  1  0  0  0  0
  7  9  1  0  0  0  0
  6  7  1  0  0  0  0
  5  6  1  0  0  0  0
  4  5  1  0  0  0  0
  2  4  1  0  0  0  0
  1  2  2  0  0  0  0
  3  2  1  0  0  0  0
 22  3  1  0  0  0  0
 23  3  1  0  0  0  0
 24  4  1  0  0  0  0
 25  5  1  0  0  0  0
 26  5  1  0  0  0  0
 27  6  1  0  0  0  0
 28  6  1  0  0  0  0
 29  7  1  0  0  0  0
 30  7  1  0  0  0  0
  8  4  1  0  0  0  0
 31  8  1  0  0  0  0
 32  8  1  0  0  0  0
 11 10  2  0  0  0  0
 12 10  1  0  0  0  0
 13 12  1  0  0  0  0
 33 13  1  0  0  0  0
 34 13  1  0  0  0  0
 35 13  1  0  0  0  0
 14 12  1  0  0  0  0
 15 14  1  0  0  0  0
 21 15  2  0  0  0  0
 16 15  1  0  0  0  0
 17 16  1  0  0  0  0
 36 17  1  0  0  0  0
 37 17  1  0  0  0  0
 38 17  1  0  0  0  0
 18 14  2  0  0  0  0
 39 18  1  0  0  0  0
 19 18  1  0  0  0  0
 40 19  1  0  0  0  0
 20 19  2  0  0  0  0
 41 20  1  0  0  0  0
 42 21  1  0  0  0  0
  9  8  1  0  0  0  0
 21 20  1  0  0  0  0
M  END
>  <FittedScore>
-35.27

$$$$
