A71EV2A-x4712a_best-RMSD
  FITTED

 42 43     0  0  0  0  0  0  0999 V2000
    9.8179   16.6904   19.2755 O    0  0  0  0  0  0  0  0  0  0  0  0
   10.3309   15.6351   19.6065 C    0  0  0  0  0  0  0  0  0  0  0  0
   10.9312   14.8127   18.7235 N    0  0  0  0  0  0  0  0  0  0  0  0
   10.2691   15.0732   21.0194 C    0  0  0  0  0  0  0  0  0  0  0  0
   11.4828   15.5385   21.8696 C    0  0  0  0  0  0  0  0  0  0  0  0
   11.4611   14.8060   23.2309 C    0  0  0  0  0  0  0  0  0  0  0  0
   10.0681   14.8572   23.9316 C    0  0  0  0  0  0  0  0  0  0  0  0
    8.9393   15.3669   21.7703 C    0  0  0  0  0  0  0  0  0  0  0  0
    8.8393   14.6446   23.0727 N    0  0  0  0  0  0  0  0  0  0  0  0
    7.7626   13.8227   23.3695 C    0  0  0  0  0  0  0  0  0  0  0  0
    7.0736   13.3435   22.4786 O    0  0  0  0  0  0  0  0  0  0  0  0
    7.5046   13.4754   24.6831 N    0  0  0  0  0  0  0  0  0  0  0  0
    7.6675   14.4343   25.8245 C    0  0  0  0  0  0  0  0  0  0  0  0
    6.9098   12.1940   25.0176 C    0  0  0  0  0  0  0  0  0  0  0  0
    7.5645   10.9594   24.7604 C    0  0  0  0  0  0  0  0  0  0  0  0
    9.1661   10.9029   23.9455 S    0  0  0  0  0  0  0  0  0  0  0  0
    9.4351    9.1639   23.5052 C    0  0  0  0  0  0  0  0  0  0  0  0
    5.6374   12.1754   25.6305 C    0  0  0  0  0  0  0  0  0  0  0  0
    5.0482   10.9773   26.0388 C    0  0  0  0  0  0  0  0  0  0  0  0
    5.7068    9.7681   25.8192 C    0  0  0  0  0  0  0  0  0  0  0  0
    6.9552    9.7582   25.1839 C    0  0  0  0  0  0  0  0  0  0  0  0
   11.1766   13.8645   19.0115 H    0  0  0  0  0  0  0  0  0  0  0  0
   11.0009   15.0778   17.7444 H    0  0  0  0  0  0  0  0  0  0  0  0
   10.3149   13.9810   20.9418 H    0  0  0  0  0  0  0  0  0  0  0  0
   12.4152   15.3068   21.3462 H    0  0  0  0  0  0  0  0  0  0  0  0
   11.4561   16.6236   22.0159 H    0  0  0  0  0  0  0  0  0  0  0  0
   11.7586   13.7626   23.0811 H    0  0  0  0  0  0  0  0  0  0  0  0
   12.2116   15.2529   23.8877 H    0  0  0  0  0  0  0  0  0  0  0  0
   10.1230   14.0915   24.7046 H    0  0  0  0  0  0  0  0  0  0  0  0
    9.9667   15.8191   24.4392 H    0  0  0  0  0  0  0  0  0  0  0  0
    8.1102   15.1335   21.0971 H    0  0  0  0  0  0  0  0  0  0  0  0
    8.8479   16.4405   21.9622 H    0  0  0  0  0  0  0  0  0  0  0  0
    8.5552   14.1817   26.4083 H    0  0  0  0  0  0  0  0  0  0  0  0
    6.8319   14.4216   26.5261 H    0  0  0  0  0  0  0  0  0  0  0  0
    7.7467   15.4687   25.4833 H    0  0  0  0  0  0  0  0  0  0  0  0
   10.3071    9.1047   22.8538 H    0  0  0  0  0  0  0  0  0  0  0  0
    8.5645    8.7620   22.9823 H    0  0  0  0  0  0  0  0  0  0  0  0
    9.6434    8.5870   24.4047 H    0  0  0  0  0  0  0  0  0  0  0  0
    5.0995   13.1002   25.8183 H    0  0  0  0  0  0  0  0  0  0  0  0
    4.0771   10.9959   26.5279 H    0  0  0  0  0  0  0  0  0  0  0  0
    5.2480    8.8386   26.1340 H    0  0  0  0  0  0  0  0  0  0  0  0
    7.4472    8.8004   25.0541 H    0  0  0  0  0  0  0  0  0  0  0  0
  9 10  1  0  0  0  0
  7  9  1  0  0  0  0
  6  7  1  0  0  0  0
  5  6  1  0  0  0  0
  4  5  1  0  0  0  0
  2  4  1  0  0  0  0
  1  2  2  0  0  0  0
  3  2  1  0  0  0  0
 22  3  1  0  0  0  0
 23  3  1  0  0  0  0
 24  4  1  0  0  0  0
 25  5  1  0  0  0  0
 26  5  1  0  0  0  0
 27  6  1  0  0  0  0
 28  6  1  0  0  0  0
 29  7  1  0  0  0  0
 30  7  1  0  0  0  0
  8  4  1  0  0  0  0
 31  8  1  0  0  0  0
 32  8  1  0  0  0  0
 11 10  2  0  0  0  0
 12 10  1  0  0  0  0
 13 12  1  0  0  0  0
 33 13  1  0  0  0  0
 34 13  1  0  0  0  0
 35 13  1  0  0  0  0
 14 12  1  0  0  0  0
 15 14  1  0  0  0  0
 21 15  2  0  0  0  0
 16 15  1  0  0  0  0
 17 16  1  0  0  0  0
 36 17  1  0  0  0  0
 37 17  1  0  0  0  0
 38 17  1  0  0  0  0
 18 14  2  0  0  0  0
 39 18  1  0  0  0  0
 19 18  1  0  0  0  0
 40 19  1  0  0  0  0
 20 19  2  0  0  0  0
 41 20  1  0  0  0  0
 42 21  1  0  0  0  0
  9  8  1  0  0  0  0
 21 20  1  0  0  0  0
M  END
>  <FittedScore>
-34.87

$$$$
