A71EV2A-x7622a_lowest-energy
  FITTED

 50 53     0  0  0  0  0  0  0999 V2000
    9.1268    8.5888   23.3938 C    0  0  0  0  0  0  0  0  0  0  0  0
    9.1901   10.3493   23.8857 S    0  0  0  0  0  0  0  0  0  0  0  0
    7.8286   10.6192   25.0205 C    0  0  0  0  0  0  0  0  0  0  0  0
    7.2161    9.5049   25.4903 N    0  0  0  0  0  0  0  0  0  0  0  0
    6.1961    9.6618   26.3669 C    0  0  0  0  0  0  0  0  0  0  0  0
    5.7236   10.8437   26.8115 N    0  0  0  0  0  0  0  0  0  0  0  0
    6.3059   11.9951   26.3592 C    0  0  0  0  0  0  0  0  0  0  0  0
    5.7590   13.1822   26.8389 N    0  0  0  0  0  0  0  0  0  0  0  0
    4.9975   13.2707   28.1002 C    0  0  0  0  0  0  0  0  0  0  0  0
    4.6790   14.7500   28.3239 C    0  0  0  0  0  0  0  0  0  0  0  0
    5.2482   15.5008   27.1158 C    0  0  0  0  0  0  0  0  0  0  0  0
    6.0111   14.5082   26.2581 C    0  0  0  0  0  0  0  0  0  0  0  0
    7.3904   11.8805   25.4510 C    0  0  0  0  0  0  0  0  0  0  0  0
    8.0903   13.0266   24.9691 N    0  0  0  0  0  0  0  0  0  0  0  0
    8.0244   13.5430   23.7190 C    0  0  0  0  0  0  0  0  0  0  0  0
    7.4134   13.0499   22.8208 O    0  0  0  0  0  0  0  0  0  0  0  0
    9.0289   14.4979   23.5439 N    0  0  0  0  0  0  0  0  0  0  0  0
    9.2930   15.2617   22.3099 C    0  0  0  0  0  0  0  0  0  0  0  0
   10.6986   15.2020   21.6820 C    0  0  0  0  0  0  0  0  0  0  0  0
   10.6978   15.8463   20.3004 C    0  0  0  0  0  0  0  0  0  0  0  0
   11.3864   15.2149   19.3467 N    0  0  0  0  0  0  0  0  0  0  0  0
   10.1498   16.8519   19.9876 O    0  0  0  0  0  0  0  0  0  0  0  0
   11.8683   15.3882   22.7286 C    0  0  0  0  0  0  0  0  0  0  0  0
   11.5752   14.6227   24.0267 C    0  0  0  0  0  0  0  0  0  0  0  0
   10.9251   13.2887   24.0297 C    0  0  0  0  0  0  0  0  0  0  0  0
   10.1721   14.5015   24.4731 C    0  0  0  0  0  0  0  0  0  0  0  0
    9.9209    8.3552   22.6874 H    0  0  0  0  0  0  0  0  0  0  0  0
    8.1694    8.3428   22.9274 H    0  0  0  0  0  0  0  0  0  0  0  0
    9.2540    7.9262   24.2506 H    0  0  0  0  0  0  0  0  0  0  0  0
    5.7044    8.7705   26.7231 H    0  0  0  0  0  0  0  0  0  0  0  0
    5.5825   12.9005   28.9443 H    0  0  0  0  0  0  0  0  0  0  0  0
    4.0760   12.6809   28.0539 H    0  0  0  0  0  0  0  0  0  0  0  0
    5.1316   15.1128   29.2504 H    0  0  0  0  0  0  0  0  0  0  0  0
    3.5981   14.8963   28.3997 H    0  0  0  0  0  0  0  0  0  0  0  0
    5.8763   16.3394   27.4234 H    0  0  0  0  0  0  0  0  0  0  0  0
    4.4241   15.8974   26.5347 H    0  0  0  0  0  0  0  0  0  0  0  0
    7.0820   14.7558   26.2922 H    0  0  0  0  0  0  0  0  0  0  0  0
    5.7019   14.5712   25.2052 H    0  0  0  0  0  0  0  0  0  0  0  0
    8.6017   13.5323   25.7165 H    0  0  0  0  0  0  0  0  0  0  0  0
    9.1503   16.3131   22.5678 H    0  0  0  0  0  0  0  0  0  0  0  0
    8.6918   14.8725   21.5004 H    0  0  0  0  0  0  0  0  0  0  0  0
   10.8564   14.1905   21.3519 H    0  0  0  0  0  0  0  0  0  0  0  0
   11.3917   15.5670   18.4053 H    0  0  0  0  0  0  0  0  0  0  0  0
   11.9389   14.4183   19.6170 H    0  0  0  0  0  0  0  0  0  0  0  0
   12.1979   16.4070   22.9490 H    0  0  0  0  0  0  0  0  0  0  0  0
   12.7349   14.8910   22.3178 H    0  0  0  0  0  0  0  0  0  0  0  0
   12.4228   14.4949   24.6722 H    0  0  0  0  0  0  0  0  0  0  0  0
   11.1530   12.5858   24.7955 H    0  0  0  0  0  0  0  0  0  0  0  0
   10.7849   12.8216   23.0563 H    0  0  0  0  0  0  0  0  0  0  0  0
    9.7955   14.4751   25.5002 H    0  0  0  0  0  0  0  0  0  0  0  0
 14 15  1  0  0  0  0
 13 14  1  0  0  0  0
  7 13  2  0  0  0  0
  6  7  1  0  0  0  0
  5  6  2  0  0  0  0
  4  5  1  0  0  0  0
  3  4  2  0  0  0  0
  2  3  1  0  0  0  0
  1  2  1  0  0  0  0
 27  1  1  0  0  0  0
 28  1  1  0  0  0  0
 29  1  1  0  0  0  0
 30  5  1  0  0  0  0
  8  7  1  0  0  0  0
  9  8  1  0  0  0  0
 10  9  1  0  0  0  0
 31  9  1  0  0  0  0
 32  9  1  0  0  0  0
 11 10  1  0  0  0  0
 33 10  1  0  0  0  0
 34 10  1  0  0  0  0
 12 11  1  0  0  0  0
 35 11  1  0  0  0  0
 36 11  1  0  0  0  0
 37 12  1  0  0  0  0
 38 12  1  0  0  0  0
 39 14  1  0  0  0  0
 16 15  2  0  0  0  0
 17 15  1  0  0  0  0
 18 17  1  0  0  0  0
 19 18  1  0  0  0  0
 40 18  1  0  0  0  0
 41 18  1  0  0  0  0
 20 19  1  0  0  0  0
 23 19  1  0  0  0  0
 42 19  1  0  0  0  0
 21 20  1  0  0  0  0
 22 20  2  0  0  0  0
 43 21  1  0  0  0  0
 44 21  1  0  0  0  0
 45 23  1  0  0  0  0
 46 23  1  0  0  0  0
 24 23  1  0  0  0  0
 25 24  1  0  0  0  0
 47 24  1  0  0  0  0
 48 25  1  0  0  0  0
 49 25  1  0  0  0  0
 26 25  1  0  0  0  0
 50 26  1  0  0  0  0
 12  8  1  0  0  0  0
 13  3  1  0  0  0  0
 26 17  1  0  0  0  0
 26 24  1  0  0  0  0
M  END
>  <FittedScore>
-28.55

$$$$
