A71EV2A-x7622a_best-RMSD
  FITTED

 50 53     0  0  0  0  0  0  0999 V2000
    9.4198    8.9805   23.3335 C    0  0  0  0  0  0  0  0  0  0  0  0
    9.3571   10.6692   23.9871 S    0  0  0  0  0  0  0  0  0  0  0  0
    7.8879   10.7593   25.0183 C    0  0  0  0  0  0  0  0  0  0  0  0
    7.3504    9.5965   25.4856 N    0  0  0  0  0  0  0  0  0  0  0  0
    6.2604    9.6910   26.2963 C    0  0  0  0  0  0  0  0  0  0  0  0
    5.6657   10.8454   26.6773 N    0  0  0  0  0  0  0  0  0  0  0  0
    6.1657   12.0352   26.2188 C    0  0  0  0  0  0  0  0  0  0  0  0
    5.4830   13.2052   26.6213 N    0  0  0  0  0  0  0  0  0  0  0  0
    5.1810   14.3366   25.7134 C    0  0  0  0  0  0  0  0  0  0  0  0
    4.0637   15.1666   26.3605 C    0  0  0  0  0  0  0  0  0  0  0  0
    3.6535   14.4374   27.6439 C    0  0  0  0  0  0  0  0  0  0  0  0
    4.7112   13.3441   27.8816 C    0  0  0  0  0  0  0  0  0  0  0  0
    7.3052   12.0147   25.3624 C    0  0  0  0  0  0  0  0  0  0  0  0
    7.9038   13.2210   24.8658 N    0  0  0  0  0  0  0  0  0  0  0  0
    7.9408   13.6517   23.5801 C    0  0  0  0  0  0  0  0  0  0  0  0
    7.2395   13.1436   22.7211 O    0  0  0  0  0  0  0  0  0  0  0  0
    8.8701   14.6302   23.3038 N    0  0  0  0  0  0  0  0  0  0  0  0
    8.9587   15.3371   21.9951 C    0  0  0  0  0  0  0  0  0  0  0  0
   10.3685   15.2104   21.3391 C    0  0  0  0  0  0  0  0  0  0  0  0
   10.4426   15.8051   19.9411 C    0  0  0  0  0  0  0  0  0  0  0  0
   11.0712   15.0329   19.0392 N    0  0  0  0  0  0  0  0  0  0  0  0
    9.7685   16.7283   19.5339 O    0  0  0  0  0  0  0  0  0  0  0  0
   11.4767   15.8228   22.2693 C    0  0  0  0  0  0  0  0  0  0  0  0
   11.3955   15.2490   23.6924 C    0  0  0  0  0  0  0  0  0  0  0  0
   11.1796   13.7991   24.0628 C    0  0  0  0  0  0  0  0  0  0  0  0
   10.0683   14.7931   24.2111 C    0  0  0  0  0  0  0  0  0  0  0  0
    9.7339    8.2865   24.1179 H    0  0  0  0  0  0  0  0  0  0  0  0
   10.1230    8.9632   22.5019 H    0  0  0  0  0  0  0  0  0  0  0  0
    8.4300    8.7065   22.9480 H    0  0  0  0  0  0  0  0  0  0  0  0
    5.8381    8.7701   26.6778 H    0  0  0  0  0  0  0  0  0  0  0  0
    4.8696   13.9900   24.7225 H    0  0  0  0  0  0  0  0  0  0  0  0
    6.0466   14.9924   25.5850 H    0  0  0  0  0  0  0  0  0  0  0  0
    3.2139   15.2742   25.6770 H    0  0  0  0  0  0  0  0  0  0  0  0
    4.4206   16.1726   26.5941 H    0  0  0  0  0  0  0  0  0  0  0  0
    2.6676   13.9870   27.5087 H    0  0  0  0  0  0  0  0  0  0  0  0
    3.5808   15.1241   28.4954 H    0  0  0  0  0  0  0  0  0  0  0  0
    4.1756   12.4406   28.1965 H    0  0  0  0  0  0  0  0  0  0  0  0
    5.3620   13.6251   28.7145 H    0  0  0  0  0  0  0  0  0  0  0  0
    8.3494   13.7835   25.5897 H    0  0  0  0  0  0  0  0  0  0  0  0
    8.7160   16.3980   22.1634 H    0  0  0  0  0  0  0  0  0  0  0  0
    8.1959   14.9764   21.2892 H    0  0  0  0  0  0  0  0  0  0  0  0
   10.5645   14.1412   21.2324 H    0  0  0  0  0  0  0  0  0  0  0  0
   10.9040   15.1499   18.0564 H    0  0  0  0  0  0  0  0  0  0  0  0
   11.5417   14.1834   19.3273 H    0  0  0  0  0  0  0  0  0  0  0  0
   11.3684   16.9141   22.3055 H    0  0  0  0  0  0  0  0  0  0  0  0
   12.4715   15.6164   21.8703 H    0  0  0  0  0  0  0  0  0  0  0  0
   12.0395   15.7925   24.3837 H    0  0  0  0  0  0  0  0  0  0  0  0
   11.6179   13.4155   24.9739 H    0  0  0  0  0  0  0  0  0  0  0  0
   11.1208   13.0634   23.2659 H    0  0  0  0  0  0  0  0  0  0  0  0
    9.6616   15.1988   25.1316 H    0  0  0  0  0  0  0  0  0  0  0  0
 14 15  1  0  0  0  0
 13 14  1  0  0  0  0
  7 13  2  0  0  0  0
  6  7  1  0  0  0  0
  5  6  2  0  0  0  0
  4  5  1  0  0  0  0
  3  4  2  0  0  0  0
  2  3  1  0  0  0  0
  1  2  1  0  0  0  0
 27  1  1  0  0  0  0
 28  1  1  0  0  0  0
 29  1  1  0  0  0  0
 30  5  1  0  0  0  0
  8  7  1  0  0  0  0
  9  8  1  0  0  0  0
 10  9  1  0  0  0  0
 31  9  1  0  0  0  0
 32  9  1  0  0  0  0
 11 10  1  0  0  0  0
 33 10  1  0  0  0  0
 34 10  1  0  0  0  0
 12 11  1  0  0  0  0
 35 11  1  0  0  0  0
 36 11  1  0  0  0  0
 37 12  1  0  0  0  0
 38 12  1  0  0  0  0
 39 14  1  0  0  0  0
 16 15  2  0  0  0  0
 17 15  1  0  0  0  0
 18 17  1  0  0  0  0
 19 18  1  0  0  0  0
 40 18  1  0  0  0  0
 41 18  1  0  0  0  0
 20 19  1  0  0  0  0
 23 19  1  0  0  0  0
 42 19  1  0  0  0  0
 21 20  1  0  0  0  0
 22 20  2  0  0  0  0
 43 21  1  0  0  0  0
 44 21  1  0  0  0  0
 45 23  1  0  0  0  0
 46 23  1  0  0  0  0
 24 23  1  0  0  0  0
 25 24  1  0  0  0  0
 47 24  1  0  0  0  0
 48 25  1  0  0  0  0
 49 25  1  0  0  0  0
 26 25  1  0  0  0  0
 50 26  1  0  0  0  0
 12  8  1  0  0  0  0
 13  3  1  0  0  0  0
 26 17  1  0  0  0  0
 26 24  1  0  0  0  0
M  END
>  <FittedScore>
-32.48

$$$$
