A71EV2A-x4409a_best-RMSD
  FITTED

 41 43     0  0  0  0  0  0  0999 V2000
   10.6363   14.4715   24.9600 O    0  0  0  0  0  0  0  0  0  0  0  0
   10.5472   14.7021   23.7830 C    0  0  0  0  0  0  0  0  0  0  0  0
   11.8073   15.1262   23.0395 C    0  0  0  0  0  0  0  0  0  0  0  0
   11.5451   15.7589   21.6658 C    0  0  0  0  0  0  0  0  0  0  0  0
    9.3516   14.5460   23.1278 N    0  0  0  0  0  0  0  0  0  0  0  0
    9.1831   14.7820   21.6731 C    0  0  0  0  0  0  0  0  0  0  0  0
   10.5312   14.8854   20.8944 C    0  0  0  0  0  0  0  0  0  0  0  0
   10.3646   15.3646   19.4651 C    0  0  0  0  0  0  0  0  0  0  0  0
    9.4686   16.1026   19.1004 O    0  0  0  0  0  0  0  0  0  0  0  0
   11.3197   14.9645   18.6024 N    0  0  0  0  0  0  0  0  0  0  0  0
    8.0819   14.2479   23.8565 C    0  0  0  0  0  0  0  0  0  0  0  0
    7.7504   12.7400   24.1120 C    0  0  0  0  0  0  0  0  0  0  0  0
    6.7559   12.4606   25.2691 C    0  0  0  0  0  0  0  0  0  0  0  0
    5.7815   13.3962   25.6952 C    0  0  0  0  0  0  0  0  0  0  0  0
    4.8838   13.0761   26.7258 C    0  0  0  0  0  0  0  0  0  0  0  0
    4.9285   11.8150   27.3361 C    0  0  0  0  0  0  0  0  0  0  0  0
    5.8718   10.8716   26.9206 C    0  0  0  0  0  0  0  0  0  0  0  0
    6.7754   11.1925   25.8959 C    0  0  0  0  0  0  0  0  0  0  0  0
    7.7034   10.2352   25.5339 O    0  0  0  0  0  0  0  0  0  0  0  0
    8.6051   10.3506   24.4025 C    0  0  0  0  0  0  0  0  0  0  0  0
    9.0177   11.8154   24.2113 C    0  0  0  0  0  0  0  0  0  0  0  0
   12.3628   15.8454   23.6501 H    0  0  0  0  0  0  0  0  0  0  0  0
   12.4575   14.2509   22.9205 H    0  0  0  0  0  0  0  0  0  0  0  0
   11.1518   16.7683   21.7930 H    0  0  0  0  0  0  0  0  0  0  0  0
   12.4891   15.8432   21.1239 H    0  0  0  0  0  0  0  0  0  0  0  0
    8.6198   15.7142   21.5622 H    0  0  0  0  0  0  0  0  0  0  0  0
    8.5764   13.9852   21.2280 H    0  0  0  0  0  0  0  0  0  0  0  0
   10.9262   13.8573   20.8385 H    0  0  0  0  0  0  0  0  0  0  0  0
   11.2042   15.1471   17.6113 H    0  0  0  0  0  0  0  0  0  0  0  0
   12.0871   14.3731   18.9102 H    0  0  0  0  0  0  0  0  0  0  0  0
    7.2373   14.7029   23.3288 H    0  0  0  0  0  0  0  0  0  0  0  0
    8.0997   14.7787   24.8153 H    0  0  0  0  0  0  0  0  0  0  0  0
    7.2342   12.4198   23.2018 H    0  0  0  0  0  0  0  0  0  0  0  0
    5.6977   14.3757   25.2355 H    0  0  0  0  0  0  0  0  0  0  0  0
    4.1496   13.8101   27.0435 H    0  0  0  0  0  0  0  0  0  0  0  0
    4.2254   11.5674   28.1323 H    0  0  0  0  0  0  0  0  0  0  0  0
    5.8991    9.8921   27.3979 H    0  0  0  0  0  0  0  0  0  0  0  0
    9.4853    9.7290   24.5908 H    0  0  0  0  0  0  0  0  0  0  0  0
    8.1047    9.9721   23.5093 H    0  0  0  0  0  0  0  0  0  0  0  0
    9.6310   12.0948   25.0739 H    0  0  0  0  0  0  0  0  0  0  0  0
    9.6403   11.8744   23.3159 H    0  0  0  0  0  0  0  0  0  0  0  0
  5 11  1  0  0  0  0
  2  5  1  0  0  0  0
  1  2  2  0  0  0  0
  3  2  1  0  0  0  0
 22  3  1  0  0  0  0
 23  3  1  0  0  0  0
  4  3  1  0  0  0  0
 24  4  1  0  0  0  0
 25  4  1  0  0  0  0
  6  5  1  0  0  0  0
 26  6  1  0  0  0  0
 27  6  1  0  0  0  0
  7  4  1  0  0  0  0
  8  7  1  0  0  0  0
 28  7  1  0  0  0  0
  9  8  2  0  0  0  0
 10  8  1  0  0  0  0
 29 10  1  0  0  0  0
 30 10  1  0  0  0  0
 31 11  1  0  0  0  0
 32 11  1  0  0  0  0
 12 11  1  0  0  0  0
 21 12  1  0  0  0  0
 33 12  1  0  0  0  0
 13 12  1  0  0  0  0
 14 13  1  0  0  0  0
 34 14  1  0  0  0  0
 15 14  2  0  0  0  0
 35 15  1  0  0  0  0
 16 15  1  0  0  0  0
 36 16  1  0  0  0  0
 17 16  2  0  0  0  0
 37 17  1  0  0  0  0
 18 17  1  0  0  0  0
 19 18  1  0  0  0  0
 20 19  1  0  0  0  0
 38 20  1  0  0  0  0
 39 20  1  0  0  0  0
 40 21  1  0  0  0  0
 41 21  1  0  0  0  0
  7  6  1  0  0  0  0
 18 13  2  0  0  0  0
 21 20  1  0  0  0  0
M  END
>  <FittedScore>
-30.57

$$$$
