A71EV2A-x4447b_best-RMSD
  FITTED

 41 43     0  0  0  0  0  0  0999 V2000
    9.9109   16.8747   19.2848 O    0  0  0  0  0  0  0  0  0  0  0  0
   10.4089   15.8121   19.6106 C    0  0  0  0  0  0  0  0  0  0  0  0
   10.8061   14.9126   18.6842 N    0  0  0  0  0  0  0  0  0  0  0  0
   10.5011   15.3166   21.0505 C    0  0  0  0  0  0  0  0  0  0  0  0
   11.6167   16.0557   21.8482 C    0  0  0  0  0  0  0  0  0  0  0  0
   11.7291   15.4780   23.2874 C    0  0  0  0  0  0  0  0  0  0  0  0
   10.3458   15.3852   23.9893 C    0  0  0  0  0  0  0  0  0  0  0  0
    9.1485   15.3957   21.8266 C    0  0  0  0  0  0  0  0  0  0  0  0
    9.2927   14.7097   23.1456 N    0  0  0  0  0  0  0  0  0  0  0  0
    8.6268   13.5442   23.4420 C    0  0  0  0  0  0  0  0  0  0  0  0
    7.6119   13.1764   22.8660 O    0  0  0  0  0  0  0  0  0  0  0  0
    9.3031   12.6988   24.2599 N    0  0  0  0  0  0  0  0  0  0  0  0
    8.8151   11.4376   24.6810 C    0  0  0  0  0  0  0  0  0  0  0  0
    9.2822   10.2616   24.0678 C    0  0  0  0  0  0  0  0  0  0  0  0
    8.6504    9.0367   24.3393 C    0  0  0  0  0  0  0  0  0  0  0  0
    7.5693    8.9702   25.2406 C    0  0  0  0  0  0  0  0  0  0  0  0
    7.1548   10.1486   25.8760 C    0  0  0  0  0  0  0  0  0  0  0  0
    6.1577   10.4040   26.7633 N    0  0  0  0  0  0  0  0  0  0  0  0
    5.0846    9.4554   27.0804 C    0  0  0  0  0  0  0  0  0  0  0  0
    7.7661   11.3621   25.6052 C    0  0  0  0  0  0  0  0  0  0  0  0
    7.1286   12.4682   26.3656 N    0  0  0  0  0  0  0  0  0  0  0  0
    6.0552   11.7296   27.0667 C    0  0  0  0  0  0  0  0  0  0  0  0
   11.0481   13.9641   18.9630 H    0  0  0  0  0  0  0  0  0  0  0  0
   10.7880   15.1430   17.6967 H    0  0  0  0  0  0  0  0  0  0  0  0
   10.7756   14.2527   21.0339 H    0  0  0  0  0  0  0  0  0  0  0  0
   12.5740   15.9557   21.3315 H    0  0  0  0  0  0  0  0  0  0  0  0
   11.3961   17.1254   21.8977 H    0  0  0  0  0  0  0  0  0  0  0  0
   12.1790   14.4815   23.2444 H    0  0  0  0  0  0  0  0  0  0  0  0
   12.4021   16.1000   23.8795 H    0  0  0  0  0  0  0  0  0  0  0  0
   10.4818   14.8974   24.9593 H    0  0  0  0  0  0  0  0  0  0  0  0
    9.9997   16.3929   24.2405 H    0  0  0  0  0  0  0  0  0  0  0  0
    8.3577   14.9603   21.2092 H    0  0  0  0  0  0  0  0  0  0  0  0
    8.8502   16.4363   21.9830 H    0  0  0  0  0  0  0  0  0  0  0  0
   10.2798   12.8621   24.4465 H    0  0  0  0  0  0  0  0  0  0  0  0
   10.0957   10.3026   23.3460 H    0  0  0  0  0  0  0  0  0  0  0  0
    8.9963    8.1341   23.8402 H    0  0  0  0  0  0  0  0  0  0  0  0
    7.0841    8.0179   25.4394 H    0  0  0  0  0  0  0  0  0  0  0  0
    4.4406    9.8091   27.8874 H    0  0  0  0  0  0  0  0  0  0  0  0
    5.4892    8.4911   27.3961 H    0  0  0  0  0  0  0  0  0  0  0  0
    4.4498    9.2754   26.2090 H    0  0  0  0  0  0  0  0  0  0  0  0
    5.2946   12.2066   27.6793 H    0  0  0  0  0  0  0  0  0  0  0  0
  9 10  1  0  0  0  0
  7  9  1  0  0  0  0
  6  7  1  0  0  0  0
  5  6  1  0  0  0  0
  4  5  1  0  0  0  0
  2  4  1  0  0  0  0
  1  2  2  0  0  0  0
  3  2  1  0  0  0  0
 23  3  1  0  0  0  0
 24  3  1  0  0  0  0
 25  4  1  0  0  0  0
 26  5  1  0  0  0  0
 27  5  1  0  0  0  0
 28  6  1  0  0  0  0
 29  6  1  0  0  0  0
 30  7  1  0  0  0  0
 31  7  1  0  0  0  0
  8  4  1  0  0  0  0
 32  8  1  0  0  0  0
 33  8  1  0  0  0  0
 11 10  2  0  0  0  0
 12 10  1  0  0  0  0
 34 12  1  0  0  0  0
 13 12  1  0  0  0  0
 14 13  2  0  0  0  0
 35 14  1  0  0  0  0
 15 14  1  0  0  0  0
 36 15  1  0  0  0  0
 16 15  2  0  0  0  0
 37 16  1  0  0  0  0
 17 16  1  0  0  0  0
 18 17  1  0  0  0  0
 22 18  1  0  0  0  0
 19 18  1  0  0  0  0
 38 19  1  0  0  0  0
 39 19  1  0  0  0  0
 40 19  1  0  0  0  0
 20 13  1  0  0  0  0
 21 20  1  0  0  0  0
 41 22  1  0  0  0  0
  9  8  1  0  0  0  0
 20 17  2  0  0  0  0
 22 21  2  0  0  0  0
M  END
>  <FittedScore>
-35.06

$$$$
