A71EV2A-x6021a_lowest-energy
  FITTED

 43 44     0  0  0  0  0  0  0999 V2000
    4.7327   13.1413   27.0723 C    0  0  0  0  0  0  0  0  0  0  0  0
    6.0261   12.9598   26.4101 N    0  0  0  0  0  0  0  0  0  0  0  0
    6.5652   11.7483   26.0141 C    0  0  0  0  0  0  0  0  0  0  0  0
    5.8886   10.6017   26.3031 N    0  0  0  0  0  0  0  0  0  0  0  0
    6.3889    9.4217   25.8725 C    0  0  0  0  0  0  0  0  0  0  0  0
    7.5240    9.2940   25.1479 N    0  0  0  0  0  0  0  0  0  0  0  0
    8.2076   10.4184   24.8358 C    0  0  0  0  0  0  0  0  0  0  0  0
    9.6000   10.2406   23.7463 S    0  0  0  0  0  0  0  0  0  0  0  0
    9.8394    8.4607   23.4990 C    0  0  0  0  0  0  0  0  0  0  0  0
    7.7893   11.6937   25.3014 C    0  0  0  0  0  0  0  0  0  0  0  0
    8.5895   12.9648   24.9782 C    0  0  0  0  0  0  0  0  0  0  0  0
    8.2432   13.5999   23.6239 C    0  0  0  0  0  0  0  0  0  0  0  0
    7.3499   13.1295   22.9248 O    0  0  0  0  0  0  0  0  0  0  0  0
    9.0338   14.6429   23.1962 N    0  0  0  0  0  0  0  0  0  0  0  0
   10.1075   15.3494   23.9873 C    0  0  0  0  0  0  0  0  0  0  0  0
   11.5146   15.2631   23.3277 C    0  0  0  0  0  0  0  0  0  0  0  0
   11.4685   15.7784   21.8682 C    0  0  0  0  0  0  0  0  0  0  0  0
   10.3355   15.0592   21.0833 C    0  0  0  0  0  0  0  0  0  0  0  0
   10.2815   15.5762   19.6599 C    0  0  0  0  0  0  0  0  0  0  0  0
   10.8737   14.7913   18.7363 N    0  0  0  0  0  0  0  0  0  0  0  0
    9.7218   16.6200   19.3830 O    0  0  0  0  0  0  0  0  0  0  0  0
    8.9622   15.1969   21.8137 C    0  0  0  0  0  0  0  0  0  0  0  0
    3.9110   12.8645   26.4025 H    0  0  0  0  0  0  0  0  0  0  0  0
    4.5931   14.1900   27.3715 H    0  0  0  0  0  0  0  0  0  0  0  0
    4.6433   12.5252   27.9694 H    0  0  0  0  0  0  0  0  0  0  0  0
    6.5467   13.8054   26.1548 H    0  0  0  0  0  0  0  0  0  0  0  0
    5.8328    8.5162   26.0866 H    0  0  0  0  0  0  0  0  0  0  0  0
    8.9643    8.0401   23.0009 H    0  0  0  0  0  0  0  0  0  0  0  0
    9.9889    7.9762   24.4554 H    0  0  0  0  0  0  0  0  0  0  0  0
   10.7278    8.3230   22.8757 H    0  0  0  0  0  0  0  0  0  0  0  0
    9.6536   12.7138   25.0004 H    0  0  0  0  0  0  0  0  0  0  0  0
    8.4777   13.7057   25.7801 H    0  0  0  0  0  0  0  0  0  0  0  0
   10.2165   15.0067   25.0187 H    0  0  0  0  0  0  0  0  0  0  0  0
    9.8245   16.4009   24.0908 H    0  0  0  0  0  0  0  0  0  0  0  0
   11.8671   14.2240   23.3350 H    0  0  0  0  0  0  0  0  0  0  0  0
   12.2385   15.8490   23.9079 H    0  0  0  0  0  0  0  0  0  0  0  0
   12.4378   15.5951   21.4007 H    0  0  0  0  0  0  0  0  0  0  0  0
   11.3171   16.8631   21.8704 H    0  0  0  0  0  0  0  0  0  0  0  0
   10.5719   13.9864   21.0738 H    0  0  0  0  0  0  0  0  0  0  0  0
   10.8120   15.0434   17.7620 H    0  0  0  0  0  0  0  0  0  0  0  0
   11.2291   13.8672   18.9961 H    0  0  0  0  0  0  0  0  0  0  0  0
    8.2015   14.7063   21.2058 H    0  0  0  0  0  0  0  0  0  0  0  0
    8.6479   16.2434   21.8823 H    0  0  0  0  0  0  0  0  0  0  0  0
 11 12  1  0  0  0  0
 10 11  1  0  0  0  0
  7 10  2  0  0  0  0
  6  7  1  0  0  0  0
  5  6  2  0  0  0  0
  4  5  1  0  0  0  0
  3  4  2  0  0  0  0
  2  3  1  0  0  0  0
  1  2  1  0  0  0  0
 23  1  1  0  0  0  0
 24  1  1  0  0  0  0
 25  1  1  0  0  0  0
 26  2  1  0  0  0  0
 27  5  1  0  0  0  0
  8  7  1  0  0  0  0
  9  8  1  0  0  0  0
 28  9  1  0  0  0  0
 29  9  1  0  0  0  0
 30  9  1  0  0  0  0
 31 11  1  0  0  0  0
 32 11  1  0  0  0  0
 13 12  2  0  0  0  0
 14 12  1  0  0  0  0
 15 14  1  0  0  0  0
 16 15  1  0  0  0  0
 33 15  1  0  0  0  0
 34 15  1  0  0  0  0
 17 16  1  0  0  0  0
 35 16  1  0  0  0  0
 36 16  1  0  0  0  0
 18 17  1  0  0  0  0
 37 17  1  0  0  0  0
 38 17  1  0  0  0  0
 19 18  1  0  0  0  0
 22 18  1  0  0  0  0
 39 18  1  0  0  0  0
 20 19  1  0  0  0  0
 21 19  2  0  0  0  0
 40 20  1  0  0  0  0
 41 20  1  0  0  0  0
 42 22  1  0  0  0  0
 43 22  1  0  0  0  0
 10  3  1  0  0  0  0
 22 14  1  0  0  0  0
M  END
>  <FittedScore>
-36.27

$$$$
