A71EV2A-x1445a_best-RMSD
  FITTED

 32 32     0  0  0  0  0  0  0999 V2000
    2.1062    9.0199   31.3533 F    0  0  0  0  0  0  0  0  0  0  0  0
    1.4992    9.3587   30.2015 C    0  0  0  0  0  0  0  0  0  0  0  0
    0.4394   10.1068   30.5587 F    0  0  0  0  0  0  0  0  0  0  0  0
    1.0256    8.2295   29.6463 F    0  0  0  0  0  0  0  0  0  0  0  0
    2.4768   10.1084   29.2373 C    0  0  0  0  0  0  0  0  0  0  0  0
    1.7181   10.7925   28.0564 C    0  0  0  0  0  0  0  0  0  0  0  0
    3.6010    9.1384   28.7301 C    0  0  0  0  0  0  0  0  0  0  0  0
    4.7704    9.8751   28.1091 C    0  0  0  0  0  0  0  0  0  0  0  0
    5.6352   10.3649   28.8068 O    0  0  0  0  0  0  0  0  0  0  0  0
    4.8349    9.8536   26.7539 N    0  0  0  0  0  0  0  0  0  0  0  0
    5.8662   10.4180   25.9376 C    0  0  0  0  0  0  0  0  0  0  0  0
    6.6835    9.7225   25.0898 C    0  0  0  0  0  0  0  0  0  0  0  0
    6.2538   11.7283   25.9392 N    0  0  0  0  0  0  0  0  0  0  0  0
    5.6157   12.8459   26.6535 C    0  0  0  0  0  0  0  0  0  0  0  0
    7.3050   12.0013   25.1056 N    0  0  0  0  0  0  0  0  0  0  0  0
    7.6065   10.6402   24.6098 C    0  0  0  0  0  0  0  0  0  0  0  0
    8.7101   10.3637   23.8205 O    0  0  0  0  0  0  0  0  0  0  0  0
    9.0352    9.0253   23.3752 C    0  0  0  0  0  0  0  0  0  0  0  0
    2.9490   10.9067   29.8201 H    0  0  0  0  0  0  0  0  0  0  0  0
    2.3878   11.3954   27.4437 H    0  0  0  0  0  0  0  0  0  0  0  0
    0.9370   11.4660   28.4149 H    0  0  0  0  0  0  0  0  0  0  0  0
    1.2434   10.0451   27.4148 H    0  0  0  0  0  0  0  0  0  0  0  0
    3.9986    8.5575   29.5666 H    0  0  0  0  0  0  0  0  0  0  0  0
    3.1883    8.3969   28.0400 H    0  0  0  0  0  0  0  0  0  0  0  0
    4.1948    9.2397   26.2531 H    0  0  0  0  0  0  0  0  0  0  0  0
    6.6412    8.6546   24.9018 H    0  0  0  0  0  0  0  0  0  0  0  0
    4.5261   12.7816   26.6235 H    0  0  0  0  0  0  0  0  0  0  0  0
    5.8830   13.8200   26.2367 H    0  0  0  0  0  0  0  0  0  0  0  0
    5.9249   12.8760   27.7010 H    0  0  0  0  0  0  0  0  0  0  0  0
    9.2265    8.3805   24.2387 H    0  0  0  0  0  0  0  0  0  0  0  0
    9.9338    9.0638   22.7560 H    0  0  0  0  0  0  0  0  0  0  0  0
    8.2154    8.6086   22.7817 H    0  0  0  0  0  0  0  0  0  0  0  0
  8 10  1  0  0  0  0
  7  8  1  0  0  0  0
  5  7  1  0  0  0  0
  6  5  1  0  0  0  0
  2  5  1  0  0  0  0
  1  2  1  0  0  0  0
  3  2  1  0  0  0  0
  4  2  1  0  0  0  0
 19  5  1  0  0  0  0
 20  6  1  0  0  0  0
 21  6  1  0  0  0  0
 22  6  1  0  0  0  0
 23  7  1  0  0  0  0
 24  7  1  0  0  0  0
  9  8  2  0  0  0  0
 25 10  1  0  0  0  0
 11 10  1  0  0  0  0
 12 11  2  0  0  0  0
 26 12  1  0  0  0  0
 13 11  1  0  0  0  0
 14 13  1  0  0  0  0
 27 14  1  0  0  0  0
 28 14  1  0  0  0  0
 29 14  1  0  0  0  0
 15 13  1  0  0  0  0
 16 12  1  0  0  0  0
 17 16  1  0  0  0  0
 18 17  1  0  0  0  0
 30 18  1  0  0  0  0
 31 18  1  0  0  0  0
 32 18  1  0  0  0  0
 16 15  2  0  0  0  0
M  END
>  <FittedScore>
-22.96

$$$$
