A71EV2A-x1445a_lowest-energy
  FITTED

 32 32     0  0  0  0  0  0  0999 V2000
    2.5488    6.7671   28.9751 F    0  0  0  0  0  0  0  0  0  0  0  0
    2.9611    7.5131   30.0220 C    0  0  0  0  0  0  0  0  0  0  0  0
    1.8967    8.2304   30.4347 F    0  0  0  0  0  0  0  0  0  0  0  0
    3.2631    6.6468   31.0097 F    0  0  0  0  0  0  0  0  0  0  0  0
    4.1469    8.4562   29.6039 C    0  0  0  0  0  0  0  0  0  0  0  0
    4.8374    9.0802   30.8616 C    0  0  0  0  0  0  0  0  0  0  0  0
    3.6841    9.5412   28.5654 C    0  0  0  0  0  0  0  0  0  0  0  0
    4.8245   10.2974   27.9000 C    0  0  0  0  0  0  0  0  0  0  0  0
    5.3894   11.2118   28.4712 O    0  0  0  0  0  0  0  0  0  0  0  0
    5.1799    9.8464   26.6679 N    0  0  0  0  0  0  0  0  0  0  0  0
    6.1167   10.4185   25.7452 C    0  0  0  0  0  0  0  0  0  0  0  0
    6.9479    9.6868   24.9475 C    0  0  0  0  0  0  0  0  0  0  0  0
    6.3931   11.7528   25.5506 N    0  0  0  0  0  0  0  0  0  0  0  0
    5.5902   12.9181   25.9703 C    0  0  0  0  0  0  0  0  0  0  0  0
    7.3967   11.9808   24.6604 N    0  0  0  0  0  0  0  0  0  0  0  0
    7.7959   10.5989   24.3475 C    0  0  0  0  0  0  0  0  0  0  0  0
    8.9077   10.3064   23.5804 O    0  0  0  0  0  0  0  0  0  0  0  0
    9.3080    8.9497   23.2981 C    0  0  0  0  0  0  0  0  0  0  0  0
    4.8962    7.8323   29.1056 H    0  0  0  0  0  0  0  0  0  0  0  0
    4.2031    9.8388   31.3243 H    0  0  0  0  0  0  0  0  0  0  0  0
    5.7838    9.5618   30.6132 H    0  0  0  0  0  0  0  0  0  0  0  0
    5.0674    8.3148   31.6030 H    0  0  0  0  0  0  0  0  0  0  0  0
    3.0487    9.0994   27.7896 H    0  0  0  0  0  0  0  0  0  0  0  0
    3.0360   10.2753   29.0530 H    0  0  0  0  0  0  0  0  0  0  0  0
    4.8981    8.8993   26.4158 H    0  0  0  0  0  0  0  0  0  0  0  0
    6.9926    8.6022   24.8843 H    0  0  0  0  0  0  0  0  0  0  0  0
    5.4887   13.6632   25.1801 H    0  0  0  0  0  0  0  0  0  0  0  0
    6.0359   13.4089   26.8392 H    0  0  0  0  0  0  0  0  0  0  0  0
    4.5718   12.6413   26.2476 H    0  0  0  0  0  0  0  0  0  0  0  0
    8.4805    8.3917   22.8471 H    0  0  0  0  0  0  0  0  0  0  0  0
    9.6241    8.4479   24.2147 H    0  0  0  0  0  0  0  0  0  0  0  0
   10.1422    8.9742   22.5955 H    0  0  0  0  0  0  0  0  0  0  0  0
  8 10  1  0  0  0  0
  7  8  1  0  0  0  0
  5  7  1  0  0  0  0
  6  5  1  0  0  0  0
  2  5  1  0  0  0  0
  1  2  1  0  0  0  0
  3  2  1  0  0  0  0
  4  2  1  0  0  0  0
 19  5  1  0  0  0  0
 20  6  1  0  0  0  0
 21  6  1  0  0  0  0
 22  6  1  0  0  0  0
 23  7  1  0  0  0  0
 24  7  1  0  0  0  0
  9  8  2  0  0  0  0
 25 10  1  0  0  0  0
 11 10  1  0  0  0  0
 12 11  2  0  0  0  0
 26 12  1  0  0  0  0
 13 11  1  0  0  0  0
 14 13  1  0  0  0  0
 27 14  1  0  0  0  0
 28 14  1  0  0  0  0
 29 14  1  0  0  0  0
 15 13  1  0  0  0  0
 16 12  1  0  0  0  0
 17 16  1  0  0  0  0
 18 17  1  0  0  0  0
 30 18  1  0  0  0  0
 31 18  1  0  0  0  0
 32 18  1  0  0  0  0
 16 15  2  0  0  0  0
M  END
>  <FittedScore>
-24.92

$$$$
