A71EV2A-x4715b_lowest-energy
  FITTED

 31 32     0  0  0  0  0  0  0999 V2000
    9.6156   14.0282   25.3544 O    0  0  0  0  0  0  0  0  0  0  0  0
    9.1926   13.9146   24.2233 C    0  0  0  0  0  0  0  0  0  0  0  0
    9.9696   14.2060   23.1487 N    0  0  0  0  0  0  0  0  0  0  0  0
   11.2966   14.8127   23.0061 C    0  0  0  0  0  0  0  0  0  0  0  0
   11.0858   15.4013   21.5724 C    0  0  0  0  0  0  0  0  0  0  0  0
   11.8049   14.8175   20.4981 O    0  0  0  0  0  0  0  0  0  0  0  0
    9.6595   14.8144   21.8516 C    0  0  0  0  0  0  0  0  0  0  0  0
    7.7402   13.5257   23.9431 C    0  0  0  0  0  0  0  0  0  0  0  0
    7.2438   12.3314   24.7787 C    0  0  0  0  0  0  0  0  0  0  0  0
    7.7145   11.0035   24.5802 C    0  0  0  0  0  0  0  0  0  0  0  0
    9.0991   10.6839   23.4846 S    0  0  0  0  0  0  0  0  0  0  0  0
    9.3229    8.8878   23.3143 C    0  0  0  0  0  0  0  0  0  0  0  0
    6.2322   12.5645   25.7345 C    0  0  0  0  0  0  0  0  0  0  0  0
    5.6630   11.5027   26.4483 C    0  0  0  0  0  0  0  0  0  0  0  0
    6.0741   10.1910   26.1997 C    0  0  0  0  0  0  0  0  0  0  0  0
    7.0904    9.9456   25.2730 C    0  0  0  0  0  0  0  0  0  0  0  0
   11.4907   15.5801   23.7656 H    0  0  0  0  0  0  0  0  0  0  0  0
   12.1047   14.0763   23.0940 H    0  0  0  0  0  0  0  0  0  0  0  0
   11.2364   16.4731   21.3895 H    0  0  0  0  0  0  0  0  0  0  0  0
   11.6412   13.8488   20.5299 H    0  0  0  0  0  0  0  0  0  0  0  0
    8.8758   15.5758   21.9279 H    0  0  0  0  0  0  0  0  0  0  0  0
    9.3042   14.0789   21.1165 H    0  0  0  0  0  0  0  0  0  0  0  0
    7.1290   14.4141   24.1160 H    0  0  0  0  0  0  0  0  0  0  0  0
    7.5877   13.2738   22.8907 H    0  0  0  0  0  0  0  0  0  0  0  0
   10.1436    8.7100   22.6165 H    0  0  0  0  0  0  0  0  0  0  0  0
    8.4154    8.4119   22.9311 H    0  0  0  0  0  0  0  0  0  0  0  0
    9.5858    8.4491   24.2803 H    0  0  0  0  0  0  0  0  0  0  0  0
    5.8679   13.5752   25.9137 H    0  0  0  0  0  0  0  0  0  0  0  0
    4.8878   11.6957   27.1877 H    0  0  0  0  0  0  0  0  0  0  0  0
    5.6174    9.3603   26.7319 H    0  0  0  0  0  0  0  0  0  0  0  0
    7.3848    8.9143   25.1276 H    0  0  0  0  0  0  0  0  0  0  0  0
  2  8  1  0  0  0  0
  3  2  1  0  0  0  0
  7  3  1  0  0  0  0
  1  2  2  0  0  0  0
  4  3  1  0  0  0  0
 17  4  1  0  0  0  0
 18  4  1  0  0  0  0
  5  4  1  0  0  0  0
 19  5  1  0  0  0  0
  6  5  1  0  0  0  0
 20  6  1  0  0  0  0
 21  7  1  0  0  0  0
 22  7  1  0  0  0  0
 23  8  1  0  0  0  0
 24  8  1  0  0  0  0
  9  8  1  0  0  0  0
 10  9  1  0  0  0  0
 16 10  2  0  0  0  0
 11 10  1  0  0  0  0
 12 11  1  0  0  0  0
 25 12  1  0  0  0  0
 26 12  1  0  0  0  0
 27 12  1  0  0  0  0
 13  9  2  0  0  0  0
 28 13  1  0  0  0  0
 14 13  1  0  0  0  0
 29 14  1  0  0  0  0
 15 14  2  0  0  0  0
 30 15  1  0  0  0  0
 31 16  1  0  0  0  0
  7  5  1  0  0  0  0
 16 15  1  0  0  0  0
M  END
>  <FittedScore>
-24.28

$$$$
