A71EV2A-x5452b_lowest-energy
  FITTED

 45 47     0  0  0  0  0  0  0999 V2000
    9.5455    8.4013   23.4145 C    0  0  0  0  0  0  0  0  0  0  0  0
   10.2281    9.0619   24.9562 S    0  0  0  0  0  0  0  0  0  0  0  0
    8.8167    9.9718   25.4942 C    0  0  0  0  0  0  0  0  0  0  0  0
    7.6990    9.3145   26.0317 C    0  0  0  0  0  0  0  0  0  0  0  0
    6.5822   10.0508   26.4434 C    0  0  0  0  0  0  0  0  0  0  0  0
    6.5595   11.4413   26.2589 C    0  0  0  0  0  0  0  0  0  0  0  0
    7.6781   12.1007   25.7004 C    0  0  0  0  0  0  0  0  0  0  0  0
    8.8142   11.3594   25.3388 C    0  0  0  0  0  0  0  0  0  0  0  0
    7.6322   13.6026   25.3981 C    0  0  0  0  0  0  0  0  0  0  0  0
    7.6740   13.8455   23.8637 C    0  0  0  0  0  0  0  0  0  0  0  0
    7.0020   13.1187   23.1525 O    0  0  0  0  0  0  0  0  0  0  0  0
    8.4301   14.8629   23.3063 N    0  0  0  0  0  0  0  0  0  0  0  0
    9.1441   15.9541   24.0451 C    0  0  0  0  0  0  0  0  0  0  0  0
   10.6458   16.0422   23.6660 C    0  0  0  0  0  0  0  0  0  0  0  0
   10.8246   16.3066   22.1460 C    0  0  0  0  0  0  0  0  0  0  0  0
   10.0077   15.2968   21.2785 C    0  0  0  0  0  0  0  0  0  0  0  0
   10.0229   15.7044   19.7931 C    0  0  0  0  0  0  0  0  0  0  0  0
   10.4823   14.7898   18.9192 N    0  0  0  0  0  0  0  0  0  0  0  0
    9.5989   16.7608   19.3660 O    0  0  0  0  0  0  0  0  0  0  0  0
    8.5441   15.1000   21.8172 C    0  0  0  0  0  0  0  0  0  0  0  0
    6.4249   14.3364   26.0790 C    0  0  0  0  0  0  0  0  0  0  0  0
    5.1381   13.4627   26.0697 C    0  0  0  0  0  0  0  0  0  0  0  0
    5.4252   12.1495   26.6280 O    0  0  0  0  0  0  0  0  0  0  0  0
    8.7319    7.7056   23.6367 H    0  0  0  0  0  0  0  0  0  0  0  0
   10.3303    7.8710   22.8651 H    0  0  0  0  0  0  0  0  0  0  0  0
    9.1726    9.2238   22.7950 H    0  0  0  0  0  0  0  0  0  0  0  0
    7.7047    8.2329   26.1449 H    0  0  0  0  0  0  0  0  0  0  0  0
    5.7266    9.5377   26.8715 H    0  0  0  0  0  0  0  0  0  0  0  0
    9.6840   11.8569   24.9085 H    0  0  0  0  0  0  0  0  0  0  0  0
    8.5372   13.9696   25.8817 H    0  0  0  0  0  0  0  0  0  0  0  0
    9.0707   15.8862   25.1272 H    0  0  0  0  0  0  0  0  0  0  0  0
    8.6564   16.9075   23.8164 H    0  0  0  0  0  0  0  0  0  0  0  0
   11.1609   15.1201   23.9515 H    0  0  0  0  0  0  0  0  0  0  0  0
   11.1057   16.8586   24.2263 H    0  0  0  0  0  0  0  0  0  0  0  0
   11.8832   16.2350   21.8873 H    0  0  0  0  0  0  0  0  0  0  0  0
   10.5163   17.3323   21.9273 H    0  0  0  0  0  0  0  0  0  0  0  0
   10.5110   14.3262   21.3818 H    0  0  0  0  0  0  0  0  0  0  0  0
   10.4112   14.9723   17.9235 H    0  0  0  0  0  0  0  0  0  0  0  0
   10.7540   13.8643   19.2347 H    0  0  0  0  0  0  0  0  0  0  0  0
    8.1136   14.2718   21.2476 H    0  0  0  0  0  0  0  0  0  0  0  0
    7.9271   15.9655   21.5590 H    0  0  0  0  0  0  0  0  0  0  0  0
    6.2139   15.3018   25.6117 H    0  0  0  0  0  0  0  0  0  0  0  0
    6.6855   14.5534   27.1192 H    0  0  0  0  0  0  0  0  0  0  0  0
    4.7739   13.3320   25.0464 H    0  0  0  0  0  0  0  0  0  0  0  0
    4.3374   13.9244   26.6535 H    0  0  0  0  0  0  0  0  0  0  0  0
  9 10  1  0  0  0  0
  7  9  1  0  0  0  0
  6  7  1  0  0  0  0
  5  6  2  0  0  0  0
  4  5  1  0  0  0  0
  3  4  2  0  0  0  0
  2  3  1  0  0  0  0
  1  2  1  0  0  0  0
 24  1  1  0  0  0  0
 25  1  1  0  0  0  0
 26  1  1  0  0  0  0
 27  4  1  0  0  0  0
 28  5  1  0  0  0  0
  8  7  2  0  0  0  0
 29  8  1  0  0  0  0
 21  9  1  0  0  0  0
 30  9  1  0  0  0  0
 11 10  2  0  0  0  0
 12 10  1  0  0  0  0
 13 12  1  0  0  0  0
 14 13  1  0  0  0  0
 31 13  1  0  0  0  0
 32 13  1  0  0  0  0
 15 14  1  0  0  0  0
 33 14  1  0  0  0  0
 34 14  1  0  0  0  0
 16 15  1  0  0  0  0
 35 15  1  0  0  0  0
 36 15  1  0  0  0  0
 17 16  1  0  0  0  0
 20 16  1  0  0  0  0
 37 16  1  0  0  0  0
 18 17  1  0  0  0  0
 19 17  2  0  0  0  0
 38 18  1  0  0  0  0
 39 18  1  0  0  0  0
 40 20  1  0  0  0  0
 41 20  1  0  0  0  0
 22 21  1  0  0  0  0
 42 21  1  0  0  0  0
 43 21  1  0  0  0  0
 23 22  1  0  0  0  0
 44 22  1  0  0  0  0
 45 22  1  0  0  0  0
  8  3  1  0  0  0  0
 20 12  1  0  0  0  0
 23  6  1  0  0  0  0
M  END
>  <FittedScore>
-34.97

$$$$
