A71EV2A-x5452b_best-RMSD
  FITTED

 45 47     0  0  0  0  0  0  0999 V2000
    9.2962    8.2713   23.4954 C    0  0  0  0  0  0  0  0  0  0  0  0
   10.0548    9.0416   24.9505 S    0  0  0  0  0  0  0  0  0  0  0  0
    8.6599    9.9747   25.5036 C    0  0  0  0  0  0  0  0  0  0  0  0
    7.5735    9.3650   26.1529 C    0  0  0  0  0  0  0  0  0  0  0  0
    6.4835   10.1364   26.5768 C    0  0  0  0  0  0  0  0  0  0  0  0
    6.4586   11.5134   26.3055 C    0  0  0  0  0  0  0  0  0  0  0  0
    7.5225   12.1220   25.5974 C    0  0  0  0  0  0  0  0  0  0  0  0
    8.6399   11.3474   25.2410 C    0  0  0  0  0  0  0  0  0  0  0  0
    7.4774   13.6198   25.2420 C    0  0  0  0  0  0  0  0  0  0  0  0
    7.7418   13.8496   23.7293 C    0  0  0  0  0  0  0  0  0  0  0  0
    7.0987   13.1590   22.9559 O    0  0  0  0  0  0  0  0  0  0  0  0
    8.5792   14.8488   23.2468 N    0  0  0  0  0  0  0  0  0  0  0  0
    9.3957   15.8151   24.0629 C    0  0  0  0  0  0  0  0  0  0  0  0
   10.8576   15.9988   23.5586 C    0  0  0  0  0  0  0  0  0  0  0  0
   10.9249   16.3484   22.0502 C    0  0  0  0  0  0  0  0  0  0  0  0
   10.0792   15.3464   21.2145 C    0  0  0  0  0  0  0  0  0  0  0  0
   10.0881   15.7319   19.7314 C    0  0  0  0  0  0  0  0  0  0  0  0
   10.6019   14.8294   18.8728 N    0  0  0  0  0  0  0  0  0  0  0  0
    9.5754   16.7417   19.2950 O    0  0  0  0  0  0  0  0  0  0  0  0
    8.6307   15.2302   21.7887 C    0  0  0  0  0  0  0  0  0  0  0  0
    6.1473   14.3378   25.6514 C    0  0  0  0  0  0  0  0  0  0  0  0
    5.5131   13.7092   26.9187 C    0  0  0  0  0  0  0  0  0  0  0  0
    5.3769   12.2702   26.7341 O    0  0  0  0  0  0  0  0  0  0  0  0
    8.8170    9.0310   22.8762 H    0  0  0  0  0  0  0  0  0  0  0  0
    8.5473    7.5436   23.8128 H    0  0  0  0  0  0  0  0  0  0  0  0
   10.0633    7.7594   22.9045 H    0  0  0  0  0  0  0  0  0  0  0  0
    7.5834    8.2965   26.3528 H    0  0  0  0  0  0  0  0  0  0  0  0
    5.6590    9.6611   27.1098 H    0  0  0  0  0  0  0  0  0  0  0  0
    9.4854   11.8079   24.7339 H    0  0  0  0  0  0  0  0  0  0  0  0
    8.2512   14.0356   25.8786 H    0  0  0  0  0  0  0  0  0  0  0  0
    9.4909   15.5349   25.1071 H    0  0  0  0  0  0  0  0  0  0  0  0
    8.8867   16.7862   24.0657 H    0  0  0  0  0  0  0  0  0  0  0  0
   11.4359   15.0883   23.7410 H    0  0  0  0  0  0  0  0  0  0  0  0
   11.3391   16.7971   24.1304 H    0  0  0  0  0  0  0  0  0  0  0  0
   11.9661   16.3247   21.7143 H    0  0  0  0  0  0  0  0  0  0  0  0
   10.5691   17.3732   21.8952 H    0  0  0  0  0  0  0  0  0  0  0  0
   10.5407   14.3616   21.3354 H    0  0  0  0  0  0  0  0  0  0  0  0
   10.5543   15.0188   17.8770 H    0  0  0  0  0  0  0  0  0  0  0  0
   10.8544   13.9014   19.2029 H    0  0  0  0  0  0  0  0  0  0  0  0
    8.0914   14.5232   21.1507 H    0  0  0  0  0  0  0  0  0  0  0  0
    8.0995   16.1805   21.6663 H    0  0  0  0  0  0  0  0  0  0  0  0
    5.4077   14.2650   24.8473 H    0  0  0  0  0  0  0  0  0  0  0  0
    6.3287   15.4036   25.8092 H    0  0  0  0  0  0  0  0  0  0  0  0
    4.5224   14.1325   27.1062 H    0  0  0  0  0  0  0  0  0  0  0  0
    6.1377   13.8990   27.7967 H    0  0  0  0  0  0  0  0  0  0  0  0
  9 10  1  0  0  0  0
  7  9  1  0  0  0  0
  6  7  1  0  0  0  0
  5  6  2  0  0  0  0
  4  5  1  0  0  0  0
  3  4  2  0  0  0  0
  2  3  1  0  0  0  0
  1  2  1  0  0  0  0
 24  1  1  0  0  0  0
 25  1  1  0  0  0  0
 26  1  1  0  0  0  0
 27  4  1  0  0  0  0
 28  5  1  0  0  0  0
  8  7  2  0  0  0  0
 29  8  1  0  0  0  0
 21  9  1  0  0  0  0
 30  9  1  0  0  0  0
 11 10  2  0  0  0  0
 12 10  1  0  0  0  0
 13 12  1  0  0  0  0
 14 13  1  0  0  0  0
 31 13  1  0  0  0  0
 32 13  1  0  0  0  0
 15 14  1  0  0  0  0
 33 14  1  0  0  0  0
 34 14  1  0  0  0  0
 16 15  1  0  0  0  0
 35 15  1  0  0  0  0
 36 15  1  0  0  0  0
 17 16  1  0  0  0  0
 20 16  1  0  0  0  0
 37 16  1  0  0  0  0
 18 17  1  0  0  0  0
 19 17  2  0  0  0  0
 38 18  1  0  0  0  0
 39 18  1  0  0  0  0
 40 20  1  0  0  0  0
 41 20  1  0  0  0  0
 22 21  1  0  0  0  0
 42 21  1  0  0  0  0
 43 21  1  0  0  0  0
 23 22  1  0  0  0  0
 44 22  1  0  0  0  0
 45 22  1  0  0  0  0
  8  3  1  0  0  0  0
 20 12  1  0  0  0  0
 23  6  1  0  0  0  0
M  END
>  <FittedScore>
-34.88

$$$$
