A71EV2A-x7339a_lowest-energy
  FITTED

 50 52     0  0  0  0  0  0  0999 V2000
    9.7214    8.5822   23.3936 C    0  0  0  0  0  0  0  0  0  0  0  0
    9.6028   10.3413   23.8535 S    0  0  0  0  0  0  0  0  0  0  0  0
    8.1578   10.4960   24.8939 C    0  0  0  0  0  0  0  0  0  0  0  0
    7.4629    9.3594   25.1694 N    0  0  0  0  0  0  0  0  0  0  0  0
    6.3239    9.4584   25.8929 C    0  0  0  0  0  0  0  0  0  0  0  0
    5.8106   10.6248   26.3418 N    0  0  0  0  0  0  0  0  0  0  0  0
    6.4915   11.7760   26.1068 C    0  0  0  0  0  0  0  0  0  0  0  0
    5.9322   12.9482   26.5769 N    0  0  0  0  0  0  0  0  0  0  0  0
    6.2728   13.5757   27.8864 C    0  0  0  0  0  0  0  0  0  0  0  0
    4.8324   13.9084   28.3840 C    0  0  0  0  0  0  0  0  0  0  0  0
    4.5238   13.2304   27.0040 C    0  0  0  0  0  0  0  0  0  0  0  0
    3.7739   14.1280   26.0019 C    0  0  0  0  0  0  0  0  0  0  0  0
    7.7210   11.7560   25.3901 C    0  0  0  0  0  0  0  0  0  0  0  0
    8.4918   13.0493   25.0626 C    0  0  0  0  0  0  0  0  0  0  0  0
    8.1669   13.6212   23.6759 C    0  0  0  0  0  0  0  0  0  0  0  0
    7.3511   13.0520   22.9660 O    0  0  0  0  0  0  0  0  0  0  0  0
    8.8863   14.7059   23.2194 N    0  0  0  0  0  0  0  0  0  0  0  0
    9.8298   15.5626   24.0195 C    0  0  0  0  0  0  0  0  0  0  0  0
   11.2852   15.5099   23.4852 C    0  0  0  0  0  0  0  0  0  0  0  0
   11.3569   15.8920   21.9836 C    0  0  0  0  0  0  0  0  0  0  0  0
   10.3173   15.0794   21.1532 C    0  0  0  0  0  0  0  0  0  0  0  0
   10.3171   15.5395   19.6983 C    0  0  0  0  0  0  0  0  0  0  0  0
   10.8210   14.6757   18.7951 N    0  0  0  0  0  0  0  0  0  0  0  0
    9.8324   16.5905   19.3332 O    0  0  0  0  0  0  0  0  0  0  0  0
    8.8879   15.1448   21.7871 C    0  0  0  0  0  0  0  0  0  0  0  0
    8.8507    8.2794   22.8074 H    0  0  0  0  0  0  0  0  0  0  0  0
    9.7872    7.9686   24.2945 H    0  0  0  0  0  0  0  0  0  0  0  0
   10.6231    8.4209   22.8013 H    0  0  0  0  0  0  0  0  0  0  0  0
    5.7755    8.5446   26.1057 H    0  0  0  0  0  0  0  0  0  0  0  0
    6.9023   14.4646   27.7618 H    0  0  0  0  0  0  0  0  0  0  0  0
    6.8285   12.9009   28.5500 H    0  0  0  0  0  0  0  0  0  0  0  0
    4.5975   14.9739   28.4854 H    0  0  0  0  0  0  0  0  0  0  0  0
    4.4949   13.3635   29.2712 H    0  0  0  0  0  0  0  0  0  0  0  0
    3.9179   12.3250   27.1374 H    0  0  0  0  0  0  0  0  0  0  0  0
    3.6559   13.6169   25.0430 H    0  0  0  0  0  0  0  0  0  0  0  0
    4.3094   15.0638   25.8216 H    0  0  0  0  0  0  0  0  0  0  0  0
    2.7773   14.3758   26.3720 H    0  0  0  0  0  0  0  0  0  0  0  0
    9.5653   12.8666   25.1468 H    0  0  0  0  0  0  0  0  0  0  0  0
    8.2956   13.8103   25.8156 H    0  0  0  0  0  0  0  0  0  0  0  0
    9.8541   15.3186   25.0792 H    0  0  0  0  0  0  0  0  0  0  0  0
    9.4749   16.5987   23.9934 H    0  0  0  0  0  0  0  0  0  0  0  0
   11.6919   14.5050   23.6302 H    0  0  0  0  0  0  0  0  0  0  0  0
   11.9130   16.1937   24.0622 H    0  0  0  0  0  0  0  0  0  0  0  0
   12.3660   15.6942   21.6089 H    0  0  0  0  0  0  0  0  0  0  0  0
   11.1795   16.9677   21.8700 H    0  0  0  0  0  0  0  0  0  0  0  0
   10.6263   14.0274   21.2019 H    0  0  0  0  0  0  0  0  0  0  0  0
   10.7659   14.8961   17.8069 H    0  0  0  0  0  0  0  0  0  0  0  0
   11.0783   13.7328   19.0828 H    0  0  0  0  0  0  0  0  0  0  0  0
    8.2180   14.5448   21.1652 H    0  0  0  0  0  0  0  0  0  0  0  0
    8.4915   16.1637   21.7265 H    0  0  0  0  0  0  0  0  0  0  0  0
 14 15  1  0  0  0  0
 13 14  1  0  0  0  0
  7 13  2  0  0  0  0
  6  7  1  0  0  0  0
  5  6  2  0  0  0  0
  4  5  1  0  0  0  0
  3  4  2  0  0  0  0
  2  3  1  0  0  0  0
  1  2  1  0  0  0  0
 26  1  1  0  0  0  0
 27  1  1  0  0  0  0
 28  1  1  0  0  0  0
 29  5  1  0  0  0  0
  8  7  1  0  0  0  0
  9  8  1  0  0  0  0
 10  9  1  0  0  0  0
 30  9  1  0  0  0  0
 31  9  1  0  0  0  0
 11 10  1  0  0  0  0
 32 10  1  0  0  0  0
 33 10  1  0  0  0  0
 12 11  1  0  0  0  0
 34 11  1  0  0  0  0
 35 12  1  0  0  0  0
 36 12  1  0  0  0  0
 37 12  1  0  0  0  0
 38 14  1  0  0  0  0
 39 14  1  0  0  0  0
 16 15  2  0  0  0  0
 17 15  1  0  0  0  0
 18 17  1  0  0  0  0
 19 18  1  0  0  0  0
 40 18  1  0  0  0  0
 41 18  1  0  0  0  0
 20 19  1  0  0  0  0
 42 19  1  0  0  0  0
 43 19  1  0  0  0  0
 21 20  1  0  0  0  0
 44 20  1  0  0  0  0
 45 20  1  0  0  0  0
 22 21  1  0  0  0  0
 25 21  1  0  0  0  0
 46 21  1  0  0  0  0
 23 22  1  0  0  0  0
 24 22  2  0  0  0  0
 47 23  1  0  0  0  0
 48 23  1  0  0  0  0
 49 25  1  0  0  0  0
 50 25  1  0  0  0  0
 11  8  1  0  0  0  0
 13  3  1  0  0  0  0
 25 17  1  0  0  0  0
M  END
>  <FittedScore>
-35.43

$$$$
