A71EV2A-x2293a_lowest-energy
  FITTED

 45 48     0  0  0  0  0  0  0999 V2000
    9.7656   14.4298   24.0783 O    0  0  0  0  0  0  0  0  0  0  0  0
   10.1476   13.4608   23.4490 C    0  0  0  0  0  0  0  0  0  0  0  0
    9.5853   12.1686   23.7012 C    0  0  0  0  0  0  0  0  0  0  0  0
    9.9537   11.0565   23.1306 N    0  0  0  0  0  0  0  0  0  0  0  0
    8.5084   11.8093   24.6704 C    0  0  0  0  0  0  0  0  0  0  0  0
    8.3493   10.4423   24.5768 C    0  0  0  0  0  0  0  0  0  0  0  0
    7.4140    9.7442   25.3540 C    0  0  0  0  0  0  0  0  0  0  0  0
    6.6441   10.4795   26.2742 C    0  0  0  0  0  0  0  0  0  0  0  0
    6.8147   11.8765   26.3897 C    0  0  0  0  0  0  0  0  0  0  0  0
    7.7432   12.5571   25.5763 C    0  0  0  0  0  0  0  0  0  0  0  0
    9.2386   10.0182   23.6454 N    0  0  0  0  0  0  0  0  0  0  0  0
    9.5489    8.6456   23.2523 C    0  0  0  0  0  0  0  0  0  0  0  0
   11.0806   13.5344   22.4597 N    0  0  0  0  0  0  0  0  0  0  0  0
   11.8584   14.7278   22.0622 C    0  0  0  0  0  0  0  0  0  0  0  0
   11.7776   14.9939   20.5338 C    0  0  0  0  0  0  0  0  0  0  0  0
   10.3413   14.9714   20.0267 N    0  0  0  0  0  0  0  0  0  0  0  0
    9.4908   16.1464   20.4802 C    0  0  0  0  0  0  0  0  0  0  0  0
   10.2012   17.4970   20.2977 C    0  0  0  0  0  0  0  0  0  0  0  0
   11.6113   17.5795   20.1537 C    0  0  0  0  0  0  0  0  0  0  0  0
   12.4714   16.3131   20.0790 C    0  0  0  0  0  0  0  0  0  0  0  0
    9.4420   18.6801   20.3289 C    0  0  0  0  0  0  0  0  0  0  0  0
   10.0684   19.9320   20.2305 C    0  0  0  0  0  0  0  0  0  0  0  0
   11.4591   20.0129   20.0923 C    0  0  0  0  0  0  0  0  0  0  0  0
   12.2284   18.8405   20.0451 C    0  0  0  0  0  0  0  0  0  0  0  0
    7.2859    8.6688   25.2540 H    0  0  0  0  0  0  0  0  0  0  0  0
    5.9210    9.9667   26.9052 H    0  0  0  0  0  0  0  0  0  0  0  0
    6.2311   12.4395   27.1089 H    0  0  0  0  0  0  0  0  0  0  0  0
    7.8648   13.6327   25.6680 H    0  0  0  0  0  0  0  0  0  0  0  0
    8.6817    8.1529   22.8125 H    0  0  0  0  0  0  0  0  0  0  0  0
    9.8687    8.0517   24.1126 H    0  0  0  0  0  0  0  0  0  0  0  0
   10.3568    8.5974   22.5128 H    0  0  0  0  0  0  0  0  0  0  0  0
   11.1703   12.7242   21.8510 H    0  0  0  0  0  0  0  0  0  0  0  0
   12.8981   14.5520   22.3495 H    0  0  0  0  0  0  0  0  0  0  0  0
   11.5442   15.6161   22.6167 H    0  0  0  0  0  0  0  0  0  0  0  0
   12.2740   14.1569   20.0343 H    0  0  0  0  0  0  0  0  0  0  0  0
   10.3801   14.9802   18.9989 H    0  0  0  0  0  0  0  0  0  0  0  0
    9.9156   14.0605   20.2770 H    0  0  0  0  0  0  0  0  0  0  0  0
    8.5687   16.1104   19.8916 H    0  0  0  0  0  0  0  0  0  0  0  0
    9.2200   15.9992   21.5299 H    0  0  0  0  0  0  0  0  0  0  0  0
   12.7948   16.1923   19.0397 H    0  0  0  0  0  0  0  0  0  0  0  0
   13.3863   16.4576   20.6636 H    0  0  0  0  0  0  0  0  0  0  0  0
    8.3594   18.6305   20.4366 H    0  0  0  0  0  0  0  0  0  0  0  0
    9.4721   20.8414   20.2469 H    0  0  0  0  0  0  0  0  0  0  0  0
   11.9427   20.9838   20.0113 H    0  0  0  0  0  0  0  0  0  0  0  0
   13.3081   18.9209   19.9285 H    0  0  0  0  0  0  0  0  0  0  0  0
  2  1  2  0  0  0  0
  3  2  1  0  0  0  0
  4  3  2  0  0  0  0
  5  3  1  0  0  0  0
 10  5  2  0  0  0  0
  6  5  1  0  0  0  0
  7  6  2  0  0  0  0
 25  7  1  0  0  0  0
  8  7  1  0  0  0  0
 26  8  1  0  0  0  0
  9  8  2  0  0  0  0
 27  9  1  0  0  0  0
 28 10  1  0  0  0  0
 11  4  1  0  0  0  0
 12 11  1  0  0  0  0
 29 12  1  0  0  0  0
 30 12  1  0  0  0  0
 31 12  1  0  0  0  0
 13  2  1  0  0  0  0
 32 13  1  0  0  0  0
 14 13  1  0  0  0  0
 33 14  1  0  0  0  0
 34 14  1  0  0  0  0
 15 14  1  0  0  0  0
 20 15  1  0  0  0  0
 35 15  1  0  0  0  0
 16 15  1  0  0  0  0
 36 16  1  0  0  0  0
 37 16  1  0  0  0  0
 17 16  1  0  0  0  0
 38 17  1  0  0  0  0
 39 17  1  0  0  0  0
 18 17  1  0  0  0  0
 19 18  1  0  0  0  0
 24 19  2  0  0  0  0
 40 20  1  0  0  0  0
 41 20  1  0  0  0  0
 21 18  2  0  0  0  0
 42 21  1  0  0  0  0
 22 21  1  0  0  0  0
 43 22  1  0  0  0  0
 23 22  2  0  0  0  0
 44 23  1  0  0  0  0
 45 24  1  0  0  0  0
 10  9  1  0  0  0  0
 11  6  1  0  0  0  0
 20 19  1  0  0  0  0
 24 23  1  0  0  0  0
M  CHG  1  16   1
M  END
>  <FittedScore>
-29.44

$$$$
