A71EV2A-x2293a_best-RMSD
  FITTED

 45 48     0  0  0  0  0  0  0999 V2000
    9.7643   14.4665   24.0613 O    0  0  0  0  0  0  0  0  0  0  0  0
   10.1682   13.4882   23.4651 C    0  0  0  0  0  0  0  0  0  0  0  0
    9.5995   12.1983   23.7254 C    0  0  0  0  0  0  0  0  0  0  0  0
    9.9694   11.0804   23.1703 N    0  0  0  0  0  0  0  0  0  0  0  0
    8.5104   11.8506   24.6874 C    0  0  0  0  0  0  0  0  0  0  0  0
    8.3533   10.4810   24.6147 C    0  0  0  0  0  0  0  0  0  0  0  0
    7.3985    9.7949   25.3800 C    0  0  0  0  0  0  0  0  0  0  0  0
    6.5877   10.5485   26.2486 C    0  0  0  0  0  0  0  0  0  0  0  0
    6.7452   11.9484   26.3326 C    0  0  0  0  0  0  0  0  0  0  0  0
    7.7082   12.6140   25.5499 C    0  0  0  0  0  0  0  0  0  0  0  0
    9.2585   10.0485   23.6996 N    0  0  0  0  0  0  0  0  0  0  0  0
    9.4955    8.6915   23.2110 C    0  0  0  0  0  0  0  0  0  0  0  0
   11.1367   13.5414   22.5051 N    0  0  0  0  0  0  0  0  0  0  0  0
   11.9299   14.7218   22.0959 C    0  0  0  0  0  0  0  0  0  0  0  0
   11.9033   14.9664   20.5598 C    0  0  0  0  0  0  0  0  0  0  0  0
   10.4914   14.8888   20.0009 N    0  0  0  0  0  0  0  0  0  0  0  0
    9.5845   16.0356   20.4191 C    0  0  0  0  0  0  0  0  0  0  0  0
   10.2575   17.4127   20.3049 C    0  0  0  0  0  0  0  0  0  0  0  0
   11.6652   17.5475   20.1978 C    0  0  0  0  0  0  0  0  0  0  0  0
   12.5608   16.3075   20.1107 C    0  0  0  0  0  0  0  0  0  0  0  0
    9.4585   18.5705   20.3604 C    0  0  0  0  0  0  0  0  0  0  0  0
   10.0452   19.8455   20.3212 C    0  0  0  0  0  0  0  0  0  0  0  0
   11.4371   19.9773   20.2236 C    0  0  0  0  0  0  0  0  0  0  0  0
   12.2430   18.8316   20.1523 C    0  0  0  0  0  0  0  0  0  0  0  0
    7.2788    8.7178   25.3055 H    0  0  0  0  0  0  0  0  0  0  0  0
    5.8361   10.0487   26.8535 H    0  0  0  0  0  0  0  0  0  0  0  0
    6.1139   12.5272   26.9985 H    0  0  0  0  0  0  0  0  0  0  0  0
    7.8172   13.6929   25.6137 H    0  0  0  0  0  0  0  0  0  0  0  0
    9.8035    8.6931   22.1614 H    0  0  0  0  0  0  0  0  0  0  0  0
    8.6033    8.0662   23.2716 H    0  0  0  0  0  0  0  0  0  0  0  0
   10.2848    8.2016   23.7834 H    0  0  0  0  0  0  0  0  0  0  0  0
   11.2462   12.7161   21.9307 H    0  0  0  0  0  0  0  0  0  0  0  0
   12.9600   14.5476   22.4146 H    0  0  0  0  0  0  0  0  0  0  0  0
   11.6057   15.6187   22.6314 H    0  0  0  0  0  0  0  0  0  0  0  0
   12.4449   14.1445   20.0878 H    0  0  0  0  0  0  0  0  0  0  0  0
   10.5642   14.8890   18.9750 H    0  0  0  0  0  0  0  0  0  0  0  0
   10.0870   13.9589   20.2385 H    0  0  0  0  0  0  0  0  0  0  0  0
    8.6960   15.9864   19.7823 H    0  0  0  0  0  0  0  0  0  0  0  0
    9.2635   15.8607   21.4505 H    0  0  0  0  0  0  0  0  0  0  0  0
   12.8814   16.2089   19.0679 H    0  0  0  0  0  0  0  0  0  0  0  0
   13.4716   16.4768   20.6953 H    0  0  0  0  0  0  0  0  0  0  0  0
    8.3767   18.4760   20.4505 H    0  0  0  0  0  0  0  0  0  0  0  0
    9.4185   20.7343   20.3675 H    0  0  0  0  0  0  0  0  0  0  0  0
   11.8927   20.9661   20.1979 H    0  0  0  0  0  0  0  0  0  0  0  0
   13.3215   18.9419   20.0789 H    0  0  0  0  0  0  0  0  0  0  0  0
  2  1  2  0  0  0  0
  3  2  1  0  0  0  0
  4  3  2  0  0  0  0
  5  3  1  0  0  0  0
 10  5  2  0  0  0  0
  6  5  1  0  0  0  0
  7  6  2  0  0  0  0
 25  7  1  0  0  0  0
  8  7  1  0  0  0  0
 26  8  1  0  0  0  0
  9  8  2  0  0  0  0
 27  9  1  0  0  0  0
 28 10  1  0  0  0  0
 11  4  1  0  0  0  0
 12 11  1  0  0  0  0
 29 12  1  0  0  0  0
 30 12  1  0  0  0  0
 31 12  1  0  0  0  0
 13  2  1  0  0  0  0
 32 13  1  0  0  0  0
 14 13  1  0  0  0  0
 33 14  1  0  0  0  0
 34 14  1  0  0  0  0
 15 14  1  0  0  0  0
 20 15  1  0  0  0  0
 35 15  1  0  0  0  0
 16 15  1  0  0  0  0
 36 16  1  0  0  0  0
 37 16  1  0  0  0  0
 17 16  1  0  0  0  0
 38 17  1  0  0  0  0
 39 17  1  0  0  0  0
 18 17  1  0  0  0  0
 19 18  1  0  0  0  0
 24 19  2  0  0  0  0
 40 20  1  0  0  0  0
 41 20  1  0  0  0  0
 21 18  2  0  0  0  0
 42 21  1  0  0  0  0
 22 21  1  0  0  0  0
 43 22  1  0  0  0  0
 23 22  2  0  0  0  0
 44 23  1  0  0  0  0
 45 24  1  0  0  0  0
 10  9  1  0  0  0  0
 11  6  1  0  0  0  0
 20 19  1  0  0  0  0
 24 23  1  0  0  0  0
M  CHG  1  16   1
M  END
>  <FittedScore>
-30.45

$$$$
