A71EV2A-x5277a_best-RMSD
  FITTED

 37 39     0  0  0  0  0  0  0999 V2000
    9.3567   10.1095   23.8875 CL   0  0  0  0  0  0  0  0  0  0  0  0
    8.0282   10.4830   24.9493 C    0  0  0  0  0  0  0  0  0  0  0  0
    7.1940    9.4267   25.3354 C    0  0  0  0  0  0  0  0  0  0  0  0
    6.1238    9.6412   26.2158 C    0  0  0  0  0  0  0  0  0  0  0  0
    5.8624   10.9245   26.7050 C    0  0  0  0  0  0  0  0  0  0  0  0
    6.6699   11.9942   26.3051 C    0  0  0  0  0  0  0  0  0  0  0  0
    7.7579   11.7899   25.4306 C    0  0  0  0  0  0  0  0  0  0  0  0
    8.5995   12.9967   25.0079 C    0  0  0  0  0  0  0  0  0  0  0  0
    8.3466   13.4838   23.5683 C    0  0  0  0  0  0  0  0  0  0  0  0
    7.4744   12.9683   22.8872 O    0  0  0  0  0  0  0  0  0  0  0  0
    9.1444   14.4882   23.0528 N    0  0  0  0  0  0  0  0  0  0  0  0
    8.9906   14.9615   21.6286 C    0  0  0  0  0  0  0  0  0  0  0  0
   10.2414   15.2232   23.8064 C    0  0  0  0  0  0  0  0  0  0  0  0
   11.4044   15.7177   22.8663 C    0  0  0  0  0  0  0  0  0  0  0  0
   10.9367   16.7694   21.7882 C    0  0  0  0  0  0  0  0  0  0  0  0
   11.6982   14.8183   21.5996 C    0  0  0  0  0  0  0  0  0  0  0  0
   10.3530   15.4753   21.1034 C    0  0  0  0  0  0  0  0  0  0  0  0
   10.5822   15.8540   19.6042 C    0  0  0  0  0  0  0  0  0  0  0  0
   10.2456   16.8484   19.0024 O    0  0  0  0  0  0  0  0  0  0  0  0
   10.9333   14.8241   18.8101 N    0  0  0  0  0  0  0  0  0  0  0  0
    7.3868    8.4242   24.9604 H    0  0  0  0  0  0  0  0  0  0  0  0
    5.4987    8.8051   26.5237 H    0  0  0  0  0  0  0  0  0  0  0  0
    5.0309   11.0912   27.3841 H    0  0  0  0  0  0  0  0  0  0  0  0
    6.4408   12.9898   26.6803 H    0  0  0  0  0  0  0  0  0  0  0  0
    8.4256   13.8228   25.7030 H    0  0  0  0  0  0  0  0  0  0  0  0
    9.6489   12.7177   25.1353 H    0  0  0  0  0  0  0  0  0  0  0  0
    8.6556   14.1626   20.9628 H    0  0  0  0  0  0  0  0  0  0  0  0
    8.2482   15.7601   21.5823 H    0  0  0  0  0  0  0  0  0  0  0  0
   10.7014   14.6239   24.5912 H    0  0  0  0  0  0  0  0  0  0  0  0
    9.7945   16.0862   24.3110 H    0  0  0  0  0  0  0  0  0  0  0  0
   12.2820   16.0004   23.4526 H    0  0  0  0  0  0  0  0  0  0  0  0
   11.7564   17.3240   21.3015 H    0  0  0  0  0  0  0  0  0  0  0  0
   10.2088   17.5178   22.1247 H    0  0  0  0  0  0  0  0  0  0  0  0
   11.6640   13.7354   21.7589 H    0  0  0  0  0  0  0  0  0  0  0  0
   12.6271   15.0436   21.0523 H    0  0  0  0  0  0  0  0  0  0  0  0
   10.9703   14.9636   17.8064 H    0  0  0  0  0  0  0  0  0  0  0  0
   11.0523   13.8926   19.1931 H    0  0  0  0  0  0  0  0  0  0  0  0
  9 11  1  0  0  0  0
  8  9  1  0  0  0  0
  7  8  1  0  0  0  0
  6  7  2  0  0  0  0
  5  6  1  0  0  0  0
  4  5  2  0  0  0  0
  3  4  1  0  0  0  0
  2  3  2  0  0  0  0
  1  2  1  0  0  0  0
 21  3  1  0  0  0  0
 22  4  1  0  0  0  0
 23  5  1  0  0  0  0
 24  6  1  0  0  0  0
 25  8  1  0  0  0  0
 26  8  1  0  0  0  0
 10  9  2  0  0  0  0
 12 11  1  0  0  0  0
 27 12  1  0  0  0  0
 28 12  1  0  0  0  0
 13 11  1  0  0  0  0
 29 13  1  0  0  0  0
 30 13  1  0  0  0  0
 14 13  1  0  0  0  0
 31 14  1  0  0  0  0
 15 14  1  0  0  0  0
 32 15  1  0  0  0  0
 33 15  1  0  0  0  0
 16 14  1  0  0  0  0
 34 16  1  0  0  0  0
 35 16  1  0  0  0  0
 17 12  1  0  0  0  0
 18 17  1  0  0  0  0
 19 18  2  0  0  0  0
 20 18  1  0  0  0  0
 36 20  1  0  0  0  0
 37 20  1  0  0  0  0
  7  2  1  0  0  0  0
 17 15  1  0  0  0  0
 17 16  1  0  0  0  0
M  END
>  <FittedScore>
-27.84

$$$$
