A71EV2A-x5277a_lowest-energy
  FITTED

 37 39     0  0  0  0  0  0  0999 V2000
    9.4732    9.4269   23.6782 CL   0  0  0  0  0  0  0  0  0  0  0  0
    8.2715   10.1194   24.7313 C    0  0  0  0  0  0  0  0  0  0  0  0
    7.2465    9.2770   25.1930 C    0  0  0  0  0  0  0  0  0  0  0  0
    6.2542    9.7582   26.0599 C    0  0  0  0  0  0  0  0  0  0  0  0
    6.2577   11.1041   26.4469 C    0  0  0  0  0  0  0  0  0  0  0  0
    7.2602   11.9579   25.9792 C    0  0  0  0  0  0  0  0  0  0  0  0
    8.2825   11.4779   25.1323 C    0  0  0  0  0  0  0  0  0  0  0  0
    9.3120   12.4870   24.6174 C    0  0  0  0  0  0  0  0  0  0  0  0
    8.7906   13.3539   23.4582 C    0  0  0  0  0  0  0  0  0  0  0  0
    7.7899   13.0166   22.8413 O    0  0  0  0  0  0  0  0  0  0  0  0
    9.5177   14.4618   23.0713 N    0  0  0  0  0  0  0  0  0  0  0  0
    9.2142   15.1813   21.7840 C    0  0  0  0  0  0  0  0  0  0  0  0
   10.7594   15.0133   23.7644 C    0  0  0  0  0  0  0  0  0  0  0  0
   11.8323   15.5529   22.7454 C    0  0  0  0  0  0  0  0  0  0  0  0
   11.3505   16.7715   21.8550 C    0  0  0  0  0  0  0  0  0  0  0  0
   11.8579   14.7898   21.3711 C    0  0  0  0  0  0  0  0  0  0  0  0
   10.5597   15.6061   21.1512 C    0  0  0  0  0  0  0  0  0  0  0  0
   10.6639   16.0025   19.6611 C    0  0  0  0  0  0  0  0  0  0  0  0
   10.3838   17.0538   19.1285 O    0  0  0  0  0  0  0  0  0  0  0  0
   10.8137   14.9558   18.8200 N    0  0  0  0  0  0  0  0  0  0  0  0
    7.2119    8.2378   24.8773 H    0  0  0  0  0  0  0  0  0  0  0  0
    5.4669    9.0951   26.4130 H    0  0  0  0  0  0  0  0  0  0  0  0
    5.4750   11.4936   27.0936 H    0  0  0  0  0  0  0  0  0  0  0  0
    7.2350   13.0073   26.2671 H    0  0  0  0  0  0  0  0  0  0  0  0
    9.5921   13.1201   25.4659 H    0  0  0  0  0  0  0  0  0  0  0  0
   10.2368   11.9947   24.3105 H    0  0  0  0  0  0  0  0  0  0  0  0
    8.6763   14.5702   21.0544 H    0  0  0  0  0  0  0  0  0  0  0  0
    8.5922   16.0596   21.9811 H    0  0  0  0  0  0  0  0  0  0  0  0
   11.2622   14.2777   24.3904 H    0  0  0  0  0  0  0  0  0  0  0  0
   10.4567   15.8296   24.4248 H    0  0  0  0  0  0  0  0  0  0  0  0
   12.8112   15.6658   23.2210 H    0  0  0  0  0  0  0  0  0  0  0  0
   12.1476   17.2942   21.2970 H    0  0  0  0  0  0  0  0  0  0  0  0
   10.7629   17.5402   22.3691 H    0  0  0  0  0  0  0  0  0  0  0  0
   11.7239   13.7033   21.3969 H    0  0  0  0  0  0  0  0  0  0  0  0
   12.7382   14.9876   20.7386 H    0  0  0  0  0  0  0  0  0  0  0  0
   10.8726   15.1201   17.8272 H    0  0  0  0  0  0  0  0  0  0  0  0
   10.9387   14.0138   19.1742 H    0  0  0  0  0  0  0  0  0  0  0  0
  9 11  1  0  0  0  0
  8  9  1  0  0  0  0
  7  8  1  0  0  0  0
  6  7  2  0  0  0  0
  5  6  1  0  0  0  0
  4  5  2  0  0  0  0
  3  4  1  0  0  0  0
  2  3  2  0  0  0  0
  1  2  1  0  0  0  0
 21  3  1  0  0  0  0
 22  4  1  0  0  0  0
 23  5  1  0  0  0  0
 24  6  1  0  0  0  0
 25  8  1  0  0  0  0
 26  8  1  0  0  0  0
 10  9  2  0  0  0  0
 12 11  1  0  0  0  0
 27 12  1  0  0  0  0
 28 12  1  0  0  0  0
 13 11  1  0  0  0  0
 29 13  1  0  0  0  0
 30 13  1  0  0  0  0
 14 13  1  0  0  0  0
 31 14  1  0  0  0  0
 15 14  1  0  0  0  0
 32 15  1  0  0  0  0
 33 15  1  0  0  0  0
 16 14  1  0  0  0  0
 34 16  1  0  0  0  0
 35 16  1  0  0  0  0
 17 12  1  0  0  0  0
 18 17  1  0  0  0  0
 19 18  2  0  0  0  0
 20 18  1  0  0  0  0
 36 20  1  0  0  0  0
 37 20  1  0  0  0  0
  7  2  1  0  0  0  0
 17 15  1  0  0  0  0
 17 16  1  0  0  0  0
M  END
>  <FittedScore>
-27.00

$$$$
