A71EV2A-x5219b_lowest-energy
  FITTED

 43 44     0  0  0  0  0  0  0999 V2000
    9.7881   16.7910   19.2610 O    0  0  0  0  0  0  0  0  0  0  0  0
   10.3691   15.7833   19.6206 C    0  0  0  0  0  0  0  0  0  0  0  0
   10.8466   14.9056   18.7151 N    0  0  0  0  0  0  0  0  0  0  0  0
   10.3661   15.2763   21.0538 C    0  0  0  0  0  0  0  0  0  0  0  0
   11.1976   16.1878   22.0002 C    0  0  0  0  0  0  0  0  0  0  0  0
   11.1405   15.6446   23.4515 C    0  0  0  0  0  0  0  0  0  0  0  0
    9.6788   15.3724   23.9182 C    0  0  0  0  0  0  0  0  0  0  0  0
    8.9106   15.1145   21.5740 C    0  0  0  0  0  0  0  0  0  0  0  0
    8.8549   14.5561   22.9581 N    0  0  0  0  0  0  0  0  0  0  0  0
    8.0205   13.5310   23.3139 C    0  0  0  0  0  0  0  0  0  0  0  0
    7.1820   13.0917   22.5465 O    0  0  0  0  0  0  0  0  0  0  0  0
    8.2115   13.0122   24.5542 O    0  0  0  0  0  0  0  0  0  0  0  0
    7.2621   12.1277   25.2046 C    0  0  0  0  0  0  0  0  0  0  0  0
    8.0323   11.0513   26.0266 C    0  0  0  0  0  0  0  0  0  0  0  0
    8.9264   10.1529   25.1234 C    0  0  0  0  0  0  0  0  0  0  0  0
    6.3448   13.0153   26.0925 C    0  0  0  0  0  0  0  0  0  0  0  0
    5.3514   12.1647   26.9278 C    0  0  0  0  0  0  0  0  0  0  0  0
    6.0685   11.0427   27.7264 C    0  0  0  0  0  0  0  0  0  0  0  0
    7.0078   10.2002   26.8278 C    0  0  0  0  0  0  0  0  0  0  0  0
   10.7604   15.1129   17.7267 H    0  0  0  0  0  0  0  0  0  0  0  0
   11.1248   13.9679   19.0005 H    0  0  0  0  0  0  0  0  0  0  0  0
   10.8249   14.2816   21.0829 H    0  0  0  0  0  0  0  0  0  0  0  0
   12.2374   16.2263   21.6633 H    0  0  0  0  0  0  0  0  0  0  0  0
   10.8116   17.2116   21.9804 H    0  0  0  0  0  0  0  0  0  0  0  0
   11.7191   14.7180   23.5196 H    0  0  0  0  0  0  0  0  0  0  0  0
   11.6161   16.3593   24.1300 H    0  0  0  0  0  0  0  0  0  0  0  0
    9.7396   14.9243   24.9109 H    0  0  0  0  0  0  0  0  0  0  0  0
    9.1759   16.3304   24.0746 H    0  0  0  0  0  0  0  0  0  0  0  0
    8.3727   14.4932   20.8513 H    0  0  0  0  0  0  0  0  0  0  0  0
    8.3971   16.0830   21.5716 H    0  0  0  0  0  0  0  0  0  0  0  0
    6.6430   11.5976   24.4707 H    0  0  0  0  0  0  0  0  0  0  0  0
    8.6932   11.5544   26.7406 H    0  0  0  0  0  0  0  0  0  0  0  0
    9.7364   10.7328   24.6749 H    0  0  0  0  0  0  0  0  0  0  0  0
    8.3512    9.6953   24.3132 H    0  0  0  0  0  0  0  0  0  0  0  0
    9.3908    9.3529   25.7023 H    0  0  0  0  0  0  0  0  0  0  0  0
    6.9555   13.6348   26.7574 H    0  0  0  0  0  0  0  0  0  0  0  0
    5.7830   13.7044   25.4556 H    0  0  0  0  0  0  0  0  0  0  0  0
    4.8137   12.8135   27.6213 H    0  0  0  0  0  0  0  0  0  0  0  0
    4.6080   11.7191   26.2601 H    0  0  0  0  0  0  0  0  0  0  0  0
    6.6499   11.4834   28.5426 H    0  0  0  0  0  0  0  0  0  0  0  0
    5.3235   10.3877   28.1852 H    0  0  0  0  0  0  0  0  0  0  0  0
    7.5459    9.4915   27.4613 H    0  0  0  0  0  0  0  0  0  0  0  0
    6.4074    9.5874   26.1487 H    0  0  0  0  0  0  0  0  0  0  0  0
  9 10  1  0  0  0  0
  7  9  1  0  0  0  0
  6  7  1  0  0  0  0
  5  6  1  0  0  0  0
  4  5  1  0  0  0  0
  2  4  1  0  0  0  0
  1  2  2  0  0  0  0
  3  2  1  0  0  0  0
 20  3  1  0  0  0  0
 21  3  1  0  0  0  0
 22  4  1  0  0  0  0
 23  5  1  0  0  0  0
 24  5  1  0  0  0  0
 25  6  1  0  0  0  0
 26  6  1  0  0  0  0
 27  7  1  0  0  0  0
 28  7  1  0  0  0  0
  8  4  1  0  0  0  0
 29  8  1  0  0  0  0
 30  8  1  0  0  0  0
 11 10  2  0  0  0  0
 12 10  1  0  0  0  0
 13 12  1  0  0  0  0
 31 13  1  0  0  0  0
 14 13  1  0  0  0  0
 15 14  1  0  0  0  0
 19 14  1  0  0  0  0
 32 14  1  0  0  0  0
 33 15  1  0  0  0  0
 34 15  1  0  0  0  0
 35 15  1  0  0  0  0
 16 13  1  0  0  0  0
 36 16  1  0  0  0  0
 37 16  1  0  0  0  0
 17 16  1  0  0  0  0
 38 17  1  0  0  0  0
 39 17  1  0  0  0  0
 18 17  1  0  0  0  0
 40 18  1  0  0  0  0
 41 18  1  0  0  0  0
 42 19  1  0  0  0  0
 43 19  1  0  0  0  0
  9  8  1  0  0  0  0
 19 18  1  0  0  0  0
M  END
>  <FittedScore>
-28.37

$$$$
