A71EV2A-x4974a_best-RMSD
  FITTED

 39 41     0  0  0  0  0  0  0999 V2000
   11.2468   14.6355   25.1678 O    0  0  0  0  0  0  0  0  0  0  0  0
   11.0498   14.8855   23.9930 C    0  0  0  0  0  0  0  0  0  0  0  0
   12.2613   15.0823   23.0753 C    0  0  0  0  0  0  0  0  0  0  0  0
   11.9855   15.0035   21.5566 C    0  0  0  0  0  0  0  0  0  0  0  0
   10.6572   15.7334   21.2082 C    0  0  0  0  0  0  0  0  0  0  0  0
   10.3037   15.7892   19.7257 C    0  0  0  0  0  0  0  0  0  0  0  0
    9.5533   16.6402   19.2915 O    0  0  0  0  0  0  0  0  0  0  0  0
   10.6313   14.7228   18.9659 N    0  0  0  0  0  0  0  0  0  0  0  0
    9.4911   15.1180   22.0186 C    0  0  0  0  0  0  0  0  0  0  0  0
    9.7808   15.0441   23.4798 N    0  0  0  0  0  0  0  0  0  0  0  0
    8.5528   14.9947   24.3284 C    0  0  0  0  0  0  0  0  0  0  0  0
    8.0549   13.5955   24.6966 C    0  0  0  0  0  0  0  0  0  0  0  0
    6.9420   13.5018   25.5690 C    0  0  0  0  0  0  0  0  0  0  0  0
    6.4088   12.2521   25.9389 C    0  0  0  0  0  0  0  0  0  0  0  0
    8.6471   12.4151   24.1899 C    0  0  0  0  0  0  0  0  0  0  0  0
    8.1037   11.1904   24.5742 C    0  0  0  0  0  0  0  0  0  0  0  0
    8.4720    9.9272   24.2360 N    0  0  0  0  0  0  0  0  0  0  0  0
    9.6602    9.5481   23.4723 C    0  0  0  0  0  0  0  0  0  0  0  0
    7.0213   11.1125   25.4144 C    0  0  0  0  0  0  0  0  0  0  0  0
    6.7339    9.7796   25.5774 C    0  0  0  0  0  0  0  0  0  0  0  0
    7.6842    8.9639   24.7918 N    0  0  0  0  0  0  0  0  0  0  0  0
   12.7028   16.0569   23.2969 H    0  0  0  0  0  0  0  0  0  0  0  0
   13.0221   14.3385   23.3233 H    0  0  0  0  0  0  0  0  0  0  0  0
   12.8233   15.4478   21.0050 H    0  0  0  0  0  0  0  0  0  0  0  0
   11.9369   13.9481   21.2704 H    0  0  0  0  0  0  0  0  0  0  0  0
   10.7762   16.7771   21.5293 H    0  0  0  0  0  0  0  0  0  0  0  0
   10.5300   14.7561   17.9549 H    0  0  0  0  0  0  0  0  0  0  0  0
   10.9488   13.8592   19.4030 H    0  0  0  0  0  0  0  0  0  0  0  0
    8.5994   15.7176   21.8188 H    0  0  0  0  0  0  0  0  0  0  0  0
    9.2763   14.1118   21.6488 H    0  0  0  0  0  0  0  0  0  0  0  0
    8.7462   15.5488   25.2500 H    0  0  0  0  0  0  0  0  0  0  0  0
    7.7208   15.5312   23.8638 H    0  0  0  0  0  0  0  0  0  0  0  0
    6.4786   14.4016   25.9601 H    0  0  0  0  0  0  0  0  0  0  0  0
    5.5540   12.1800   26.6048 H    0  0  0  0  0  0  0  0  0  0  0  0
    9.5033   12.4317   23.5192 H    0  0  0  0  0  0  0  0  0  0  0  0
   10.5432   10.0899   23.8262 H    0  0  0  0  0  0  0  0  0  0  0  0
    9.5473    9.7755   22.4126 H    0  0  0  0  0  0  0  0  0  0  0  0
    9.9058    8.4881   23.5596 H    0  0  0  0  0  0  0  0  0  0  0  0
    5.9397    9.3418   26.1752 H    0  0  0  0  0  0  0  0  0  0  0  0
 12 15  2  0  0  0  0
 11 12  1  0  0  0  0
 10 11  1  0  0  0  0
  9 10  1  0  0  0  0
  5  9  1  0  0  0  0
  6  5  1  0  0  0  0
  4  5  1  0  0  0  0
  3  4  1  0  0  0  0
  2  3  1  0  0  0  0
  1  2  2  0  0  0  0
 22  3  1  0  0  0  0
 23  3  1  0  0  0  0
 24  4  1  0  0  0  0
 25  4  1  0  0  0  0
 26  5  1  0  0  0  0
  7  6  2  0  0  0  0
  8  6  1  0  0  0  0
 27  8  1  0  0  0  0
 28  8  1  0  0  0  0
 29  9  1  0  0  0  0
 30  9  1  0  0  0  0
 31 11  1  0  0  0  0
 32 11  1  0  0  0  0
 13 12  1  0  0  0  0
 33 13  1  0  0  0  0
 14 13  2  0  0  0  0
 34 14  1  0  0  0  0
 35 15  1  0  0  0  0
 16 15  1  0  0  0  0
 17 16  1  0  0  0  0
 21 17  1  0  0  0  0
 18 17  1  0  0  0  0
 36 18  1  0  0  0  0
 37 18  1  0  0  0  0
 38 18  1  0  0  0  0
 19 14  1  0  0  0  0
 20 19  1  0  0  0  0
 39 20  1  0  0  0  0
 10  2  1  0  0  0  0
 19 16  2  0  0  0  0
 21 20  2  0  0  0  0
M  END
>  <FittedScore>
-33.00

$$$$
