A71EV2A-x4836a_lowest-energy
  FITTED

 44 46     0  0  0  0  0  0  0999 V2000
    9.6549   16.6734   19.3701 O    0  0  0  0  0  0  0  0  0  0  0  0
   10.0957   15.5860   19.7010 C    0  0  0  0  0  0  0  0  0  0  0  0
   10.5392   14.7158   18.7770 N    0  0  0  0  0  0  0  0  0  0  0  0
   10.1665   15.0910   21.1440 C    0  0  0  0  0  0  0  0  0  0  0  0
   11.2805   15.8515   21.9189 C    0  0  0  0  0  0  0  0  0  0  0  0
   11.3280   15.3967   23.4021 C    0  0  0  0  0  0  0  0  0  0  0  0
    9.9197   15.4150   24.0633 C    0  0  0  0  0  0  0  0  0  0  0  0
    8.8000   15.1680   21.8925 C    0  0  0  0  0  0  0  0  0  0  0  0
    8.9000   14.6216   23.2865 N    0  0  0  0  0  0  0  0  0  0  0  0
    8.2019   13.5022   23.7161 C    0  0  0  0  0  0  0  0  0  0  0  0
    7.4436   12.9153   22.9530 O    0  0  0  0  0  0  0  0  0  0  0  0
    8.3994   12.9545   25.1607 C    0  0  0  0  0  0  0  0  0  0  0  0
    7.8568   11.5676   25.3640 N    0  0  0  0  0  0  0  0  0  0  0  0
    8.4348   10.4284   24.8521 C    0  0  0  0  0  0  0  0  0  0  0  0
    7.9546    9.3283   25.0097 O    0  0  0  0  0  0  0  0  0  0  0  0
    9.7523   10.5352   24.1059 C    0  0  0  0  0  0  0  0  0  0  0  0
    7.6654   13.8288   26.2160 C    0  0  0  0  0  0  0  0  0  0  0  0
    6.5887   12.9297   26.7440 C    0  0  0  0  0  0  0  0  0  0  0  0
    6.7132   11.6460   26.2347 C    0  0  0  0  0  0  0  0  0  0  0  0
    5.5823   13.2591   27.6552 C    0  0  0  0  0  0  0  0  0  0  0  0
    4.6736   12.2644   28.0466 C    0  0  0  0  0  0  0  0  0  0  0  0
    4.7800   10.9620   27.5332 C    0  0  0  0  0  0  0  0  0  0  0  0
    5.7921   10.6484   26.6194 C    0  0  0  0  0  0  0  0  0  0  0  0
   10.5584   14.9810   17.8056 H    0  0  0  0  0  0  0  0  0  0  0  0
   10.7800   13.7554   19.0292 H    0  0  0  0  0  0  0  0  0  0  0  0
   10.4511   14.0333   21.1393 H    0  0  0  0  0  0  0  0  0  0  0  0
   12.2523   15.6742   21.4502 H    0  0  0  0  0  0  0  0  0  0  0  0
   11.0995   16.9294   21.8762 H    0  0  0  0  0  0  0  0  0  0  0  0
   11.7495   14.3888   23.4683 H    0  0  0  0  0  0  0  0  0  0  0  0
   11.9959   16.0606   23.9580 H    0  0  0  0  0  0  0  0  0  0  0  0
   10.0416   15.0908   25.0955 H    0  0  0  0  0  0  0  0  0  0  0  0
    9.5763   16.4534   24.1481 H    0  0  0  0  0  0  0  0  0  0  0  0
    8.0322   14.6689   21.2917 H    0  0  0  0  0  0  0  0  0  0  0  0
    8.4781   16.2104   21.9398 H    0  0  0  0  0  0  0  0  0  0  0  0
    9.4626   12.9376   25.4272 H    0  0  0  0  0  0  0  0  0  0  0  0
    9.6510   11.1275   23.1963 H    0  0  0  0  0  0  0  0  0  0  0  0
   10.0822    9.5345   23.8225 H    0  0  0  0  0  0  0  0  0  0  0  0
   10.5365   10.9759   24.7248 H    0  0  0  0  0  0  0  0  0  0  0  0
    8.3434   14.1126   27.0245 H    0  0  0  0  0  0  0  0  0  0  0  0
    7.2397   14.7406   25.7926 H    0  0  0  0  0  0  0  0  0  0  0  0
    5.5194   14.2631   28.0584 H    0  0  0  0  0  0  0  0  0  0  0  0
    3.8910   12.4962   28.7642 H    0  0  0  0  0  0  0  0  0  0  0  0
    4.0731   10.1920   27.8278 H    0  0  0  0  0  0  0  0  0  0  0  0
    5.8356    9.6379   26.2289 H    0  0  0  0  0  0  0  0  0  0  0  0
  9 10  1  0  0  0  0
  7  9  1  0  0  0  0
  6  7  1  0  0  0  0
  5  6  1  0  0  0  0
  4  5  1  0  0  0  0
  2  4  1  0  0  0  0
  1  2  2  0  0  0  0
  3  2  1  0  0  0  0
 24  3  1  0  0  0  0
 25  3  1  0  0  0  0
 26  4  1  0  0  0  0
 27  5  1  0  0  0  0
 28  5  1  0  0  0  0
 29  6  1  0  0  0  0
 30  6  1  0  0  0  0
 31  7  1  0  0  0  0
 32  7  1  0  0  0  0
  8  4  1  0  0  0  0
 33  8  1  0  0  0  0
 34  8  1  0  0  0  0
 11 10  2  0  0  0  0
 12 10  1  0  0  0  0
 35 12  1  0  0  0  0
 13 12  1  0  0  0  0
 19 13  1  0  0  0  0
 14 13  1  0  0  0  0
 15 14  2  0  0  0  0
 16 14  1  0  0  0  0
 36 16  1  0  0  0  0
 37 16  1  0  0  0  0
 38 16  1  0  0  0  0
 17 12  1  0  0  0  0
 39 17  1  0  0  0  0
 40 17  1  0  0  0  0
 18 17  1  0  0  0  0
 23 19  2  0  0  0  0
 20 18  2  0  0  0  0
 41 20  1  0  0  0  0
 21 20  1  0  0  0  0
 42 21  1  0  0  0  0
 22 21  2  0  0  0  0
 43 22  1  0  0  0  0
 44 23  1  0  0  0  0
  9  8  1  0  0  0  0
 19 18  1  0  0  0  0
 23 22  1  0  0  0  0
M  END
>  <FittedScore>
-30.99

$$$$
