A71EV2A-x4836a_best-RMSD
  FITTED

 44 46     0  0  0  0  0  0  0999 V2000
    9.7318   16.7200   19.3385 O    0  0  0  0  0  0  0  0  0  0  0  0
   10.1777   15.6348   19.6736 C    0  0  0  0  0  0  0  0  0  0  0  0
   10.5685   14.7302   18.7583 N    0  0  0  0  0  0  0  0  0  0  0  0
   10.2601   15.1322   21.1117 C    0  0  0  0  0  0  0  0  0  0  0  0
   11.2770   15.9760   21.9289 C    0  0  0  0  0  0  0  0  0  0  0  0
   11.2883   15.5223   23.4134 C    0  0  0  0  0  0  0  0  0  0  0  0
    9.8593   15.4336   24.0114 C    0  0  0  0  0  0  0  0  0  0  0  0
    8.8568   15.0791   21.7933 C    0  0  0  0  0  0  0  0  0  0  0  0
    8.9238   14.5693   23.2053 N    0  0  0  0  0  0  0  0  0  0  0  0
    8.1913   13.4836   23.6577 C    0  0  0  0  0  0  0  0  0  0  0  0
    7.4117   12.9060   22.9126 O    0  0  0  0  0  0  0  0  0  0  0  0
    8.3642   12.9712   25.1113 C    0  0  0  0  0  0  0  0  0  0  0  0
    7.8265   11.5869   25.3681 N    0  0  0  0  0  0  0  0  0  0  0  0
    8.4063   10.4291   24.8910 C    0  0  0  0  0  0  0  0  0  0  0  0
    7.9309    9.3326   25.0959 O    0  0  0  0  0  0  0  0  0  0  0  0
    9.7196   10.4912   24.1158 C    0  0  0  0  0  0  0  0  0  0  0  0
    7.6095   13.8931   26.1104 C    0  0  0  0  0  0  0  0  0  0  0  0
    6.5323   13.0198   26.6683 C    0  0  0  0  0  0  0  0  0  0  0  0
    6.6725   11.7087   26.2366 C    0  0  0  0  0  0  0  0  0  0  0  0
    5.4880   13.4154   27.5162 C    0  0  0  0  0  0  0  0  0  0  0  0
    4.5612   12.4492   27.9407 C    0  0  0  0  0  0  0  0  0  0  0  0
    4.6946   11.1127   27.5243 C    0  0  0  0  0  0  0  0  0  0  0  0
    5.7422   10.7358   26.6694 C    0  0  0  0  0  0  0  0  0  0  0  0
   10.5829   14.9668   17.7771 H    0  0  0  0  0  0  0  0  0  0  0  0
   10.8139   13.7865   19.0530 H    0  0  0  0  0  0  0  0  0  0  0  0
   10.6437   14.1027   21.1197 H    0  0  0  0  0  0  0  0  0  0  0  0
   12.2831   15.8533   21.5091 H    0  0  0  0  0  0  0  0  0  0  0  0
   11.0299   17.0414   21.8635 H    0  0  0  0  0  0  0  0  0  0  0  0
   11.7773   14.5471   23.5049 H    0  0  0  0  0  0  0  0  0  0  0  0
   11.8930   16.2293   23.9902 H    0  0  0  0  0  0  0  0  0  0  0  0
    9.9722   15.1150   25.0430 H    0  0  0  0  0  0  0  0  0  0  0  0
    9.4394   16.4427   24.0821 H    0  0  0  0  0  0  0  0  0  0  0  0
    8.2039   14.4733   21.1563 H    0  0  0  0  0  0  0  0  0  0  0  0
    8.4247   16.0857   21.7946 H    0  0  0  0  0  0  0  0  0  0  0  0
    9.4231   12.9539   25.3929 H    0  0  0  0  0  0  0  0  0  0  0  0
   10.5304   10.8311   24.7594 H    0  0  0  0  0  0  0  0  0  0  0  0
    9.6547   11.1411   23.2432 H    0  0  0  0  0  0  0  0  0  0  0  0
    9.9967    9.5048   23.7423 H    0  0  0  0  0  0  0  0  0  0  0  0
    8.2821   14.1975   26.9151 H    0  0  0  0  0  0  0  0  0  0  0  0
    7.1901   14.7952   25.6531 H    0  0  0  0  0  0  0  0  0  0  0  0
    5.4007   14.4469   27.8360 H    0  0  0  0  0  0  0  0  0  0  0  0
    3.7399   12.7302   28.5960 H    0  0  0  0  0  0  0  0  0  0  0  0
    3.9778   10.3605   27.8556 H    0  0  0  0  0  0  0  0  0  0  0  0
    5.7949    9.7025   26.3515 H    0  0  0  0  0  0  0  0  0  0  0  0
  9 10  1  0  0  0  0
  7  9  1  0  0  0  0
  6  7  1  0  0  0  0
  5  6  1  0  0  0  0
  4  5  1  0  0  0  0
  2  4  1  0  0  0  0
  1  2  2  0  0  0  0
  3  2  1  0  0  0  0
 24  3  1  0  0  0  0
 25  3  1  0  0  0  0
 26  4  1  0  0  0  0
 27  5  1  0  0  0  0
 28  5  1  0  0  0  0
 29  6  1  0  0  0  0
 30  6  1  0  0  0  0
 31  7  1  0  0  0  0
 32  7  1  0  0  0  0
  8  4  1  0  0  0  0
 33  8  1  0  0  0  0
 34  8  1  0  0  0  0
 11 10  2  0  0  0  0
 12 10  1  0  0  0  0
 35 12  1  0  0  0  0
 13 12  1  0  0  0  0
 19 13  1  0  0  0  0
 14 13  1  0  0  0  0
 15 14  2  0  0  0  0
 16 14  1  0  0  0  0
 36 16  1  0  0  0  0
 37 16  1  0  0  0  0
 38 16  1  0  0  0  0
 17 12  1  0  0  0  0
 39 17  1  0  0  0  0
 40 17  1  0  0  0  0
 18 17  1  0  0  0  0
 23 19  2  0  0  0  0
 20 18  2  0  0  0  0
 41 20  1  0  0  0  0
 21 20  1  0  0  0  0
 42 21  1  0  0  0  0
 22 21  2  0  0  0  0
 43 22  1  0  0  0  0
 44 23  1  0  0  0  0
  9  8  1  0  0  0  0
 19 18  1  0  0  0  0
 23 22  1  0  0  0  0
M  END
>  <FittedScore>
-31.01

$$$$
