A71EV2A-x6797a_best-RMSD
  FITTED

 54 56     0  0  0  0  0  0  0999 V2000
    5.2142   19.5853   27.8321 C    0  0  0  0  0  0  0  0  0  0  0  0
    5.9177   18.6613   28.8510 C    0  0  0  0  0  0  0  0  0  0  0  0
    7.1363   18.0658   28.2748 N    0  0  0  0  0  0  0  0  0  0  0  0
    7.1625   16.9297   27.5223 C    0  0  0  0  0  0  0  0  0  0  0  0
    8.4811   16.5822   27.3259 C    0  0  0  0  0  0  0  0  0  0  0  0
    9.0487   15.4112   26.5735 C    0  0  0  0  0  0  0  0  0  0  0  0
   10.2482   15.2265   26.4923 O    0  0  0  0  0  0  0  0  0  0  0  0
    8.1302   14.6800   25.8831 N    0  0  0  0  0  0  0  0  0  0  0  0
    8.3405   13.4616   25.0597 C    0  0  0  0  0  0  0  0  0  0  0  0
    8.0561   13.7820   23.5815 C    0  0  0  0  0  0  0  0  0  0  0  0
    7.1665   13.1894   22.9960 O    0  0  0  0  0  0  0  0  0  0  0  0
    8.8936   14.6205   22.8851 N    0  0  0  0  0  0  0  0  0  0  0  0
   10.0585   15.4104   23.3713 C    0  0  0  0  0  0  0  0  0  0  0  0
   10.8067   16.0157   22.1784 C    0  0  0  0  0  0  0  0  0  0  0  0
   10.2907   15.1598   21.0259 C    0  0  0  0  0  0  0  0  0  0  0  0
   10.3590   15.7812   19.6525 C    0  0  0  0  0  0  0  0  0  0  0  0
   10.7914   14.9388   18.6981 N    0  0  0  0  0  0  0  0  0  0  0  0
    9.8240   16.8343   19.3650 O    0  0  0  0  0  0  0  0  0  0  0  0
    8.8597   14.7736   21.4264 C    0  0  0  0  0  0  0  0  0  0  0  0
    7.4945   12.2417   25.5561 C    0  0  0  0  0  0  0  0  0  0  0  0
    6.3646   12.4448   26.3929 C    0  0  0  0  0  0  0  0  0  0  0  0
    5.5845   11.3759   26.8408 C    0  0  0  0  0  0  0  0  0  0  0  0
    5.8843   10.0775   26.4345 C    0  0  0  0  0  0  0  0  0  0  0  0
    6.9506    9.8490   25.5607 C    0  0  0  0  0  0  0  0  0  0  0  0
    7.7735   10.9093   25.1130 C    0  0  0  0  0  0  0  0  0  0  0  0
    9.1459   10.5784   23.9823 S    0  0  0  0  0  0  0  0  0  0  0  0
    9.0961    8.8286   23.4741 C    0  0  0  0  0  0  0  0  0  0  0  0
    9.2162   17.5511   27.9892 C    0  0  0  0  0  0  0  0  0  0  0  0
    8.3565   18.5625   28.6428 N    0  0  0  0  0  0  0  0  0  0  0  0
    4.8523   19.0147   26.9722 H    0  0  0  0  0  0  0  0  0  0  0  0
    5.8972   20.3580   27.4688 H    0  0  0  0  0  0  0  0  0  0  0  0
    4.3558   20.0816   28.2933 H    0  0  0  0  0  0  0  0  0  0  0  0
    5.2170   17.8787   29.1566 H    0  0  0  0  0  0  0  0  0  0  0  0
    6.1318   19.2356   29.7581 H    0  0  0  0  0  0  0  0  0  0  0  0
    6.2844   16.4010   27.1548 H    0  0  0  0  0  0  0  0  0  0  0  0
    7.1732   15.0281   25.8582 H    0  0  0  0  0  0  0  0  0  0  0  0
    9.3897   13.1695   25.1519 H    0  0  0  0  0  0  0  0  0  0  0  0
   10.7479   14.7649   23.9211 H    0  0  0  0  0  0  0  0  0  0  0  0
    9.7200   16.2274   24.0089 H    0  0  0  0  0  0  0  0  0  0  0  0
   11.8905   15.9266   22.2932 H    0  0  0  0  0  0  0  0  0  0  0  0
   10.5514   17.0740   22.0502 H    0  0  0  0  0  0  0  0  0  0  0  0
   10.8917   14.2402   21.0393 H    0  0  0  0  0  0  0  0  0  0  0  0
   10.9638   13.9557   18.9092 H    0  0  0  0  0  0  0  0  0  0  0  0
   10.8250   15.2427   17.7387 H    0  0  0  0  0  0  0  0  0  0  0  0
    8.5871   13.8466   20.9125 H    0  0  0  0  0  0  0  0  0  0  0  0
    8.1258   15.5425   21.1540 H    0  0  0  0  0  0  0  0  0  0  0  0
    6.0581   13.4357   26.7177 H    0  0  0  0  0  0  0  0  0  0  0  0
    4.7410   11.5603   27.5010 H    0  0  0  0  0  0  0  0  0  0  0  0
    5.2804    9.2464   26.7880 H    0  0  0  0  0  0  0  0  0  0  0  0
    7.1210    8.8214   25.2603 H    0  0  0  0  0  0  0  0  0  0  0  0
    9.2433    8.1812   24.3398 H    0  0  0  0  0  0  0  0  0  0  0  0
    9.8974    8.6324   22.7590 H    0  0  0  0  0  0  0  0  0  0  0  0
    8.1394    8.6054   22.9997 H    0  0  0  0  0  0  0  0  0  0  0  0
   10.3010   17.6043   28.0506 H    0  0  0  0  0  0  0  0  0  0  0  0
  8  9  1  0  0  0  0
  6  8  1  0  0  0  0
  5  6  1  0  0  0  0
  4  5  2  0  0  0  0
  3  4  1  0  0  0  0
  2  3  1  0  0  0  0
  1  2  1  0  0  0  0
 30  1  1  0  0  0  0
 31  1  1  0  0  0  0
 32  1  1  0  0  0  0
 33  2  1  0  0  0  0
 34  2  1  0  0  0  0
 35  4  1  0  0  0  0
 28  5  1  0  0  0  0
  7  6  2  0  0  0  0
 36  8  1  0  0  0  0
 10  9  1  0  0  0  0
 20  9  1  0  0  0  0
 37  9  1  0  0  0  0
 11 10  2  0  0  0  0
 12 10  1  0  0  0  0
 13 12  1  0  0  0  0
 14 13  1  0  0  0  0
 38 13  1  0  0  0  0
 39 13  1  0  0  0  0
 15 14  1  0  0  0  0
 40 14  1  0  0  0  0
 41 14  1  0  0  0  0
 16 15  1  0  0  0  0
 19 15  1  0  0  0  0
 42 15  1  0  0  0  0
 17 16  1  0  0  0  0
 18 16  2  0  0  0  0
 43 17  1  0  0  0  0
 44 17  1  0  0  0  0
 45 19  1  0  0  0  0
 46 19  1  0  0  0  0
 21 20  2  0  0  0  0
 22 21  1  0  0  0  0
 47 21  1  0  0  0  0
 23 22  2  0  0  0  0
 48 22  1  0  0  0  0
 24 23  1  0  0  0  0
 49 23  1  0  0  0  0
 25 24  2  0  0  0  0
 50 24  1  0  0  0  0
 26 25  1  0  0  0  0
 27 26  1  0  0  0  0
 51 27  1  0  0  0  0
 52 27  1  0  0  0  0
 53 27  1  0  0  0  0
 29 28  2  0  0  0  0
 54 28  1  0  0  0  0
 19 12  1  0  0  0  0
 25 20  1  0  0  0  0
 29  3  1  0  0  0  0
M  END
>  <FittedScore>
-42.44

$$$$
