A71EV2A-x6797a_lowest-energy
  FITTED

 54 56     0  0  0  0  0  0  0999 V2000
    5.1445   19.2826   27.8193 C    0  0  0  0  0  0  0  0  0  0  0  0
    6.1382   18.7344   28.8677 C    0  0  0  0  0  0  0  0  0  0  0  0
    7.3193   18.1141   28.2375 N    0  0  0  0  0  0  0  0  0  0  0  0
    7.2921   16.9597   27.5078 C    0  0  0  0  0  0  0  0  0  0  0  0
    8.5928   16.5531   27.3005 C    0  0  0  0  0  0  0  0  0  0  0  0
    9.1020   15.3502   26.5611 C    0  0  0  0  0  0  0  0  0  0  0  0
   10.2957   15.1213   26.4714 O    0  0  0  0  0  0  0  0  0  0  0  0
    8.1534   14.6425   25.8853 N    0  0  0  0  0  0  0  0  0  0  0  0
    8.3405   13.4194   25.0594 C    0  0  0  0  0  0  0  0  0  0  0  0
    8.0584   13.7503   23.5832 C    0  0  0  0  0  0  0  0  0  0  0  0
    7.1436   13.1902   23.0024 O    0  0  0  0  0  0  0  0  0  0  0  0
    8.9174   14.5677   22.8837 N    0  0  0  0  0  0  0  0  0  0  0  0
   10.1190   15.3096   23.3553 C    0  0  0  0  0  0  0  0  0  0  0  0
   10.8770   15.8872   22.1554 C    0  0  0  0  0  0  0  0  0  0  0  0
   10.2993   15.0769   20.9994 C    0  0  0  0  0  0  0  0  0  0  0  0
   10.3709   15.7301   19.6363 C    0  0  0  0  0  0  0  0  0  0  0  0
   10.9190   14.9512   18.6863 N    0  0  0  0  0  0  0  0  0  0  0  0
    9.7753   16.7506   19.3570 O    0  0  0  0  0  0  0  0  0  0  0  0
    8.8628   14.7487   21.4268 C    0  0  0  0  0  0  0  0  0  0  0  0
    7.4819   12.2101   25.5608 C    0  0  0  0  0  0  0  0  0  0  0  0
    6.3561   12.4202   26.4009 C    0  0  0  0  0  0  0  0  0  0  0  0
    5.5619   11.3586   26.8437 C    0  0  0  0  0  0  0  0  0  0  0  0
    5.8475   10.0575   26.4367 C    0  0  0  0  0  0  0  0  0  0  0  0
    6.9169    9.8180   25.5688 C    0  0  0  0  0  0  0  0  0  0  0  0
    7.7442   10.8740   25.1160 C    0  0  0  0  0  0  0  0  0  0  0  0
    9.0978   10.5288   23.9749 S    0  0  0  0  0  0  0  0  0  0  0  0
    9.0343    8.7830   23.4619 C    0  0  0  0  0  0  0  0  0  0  0  0
    9.3732   17.5018   27.9405 C    0  0  0  0  0  0  0  0  0  0  0  0
    8.5627   18.5475   28.6005 N    0  0  0  0  0  0  0  0  0  0  0  0
    4.6538   18.4721   27.2769 H    0  0  0  0  0  0  0  0  0  0  0  0
    5.6507   19.9247   27.0940 H    0  0  0  0  0  0  0  0  0  0  0  0
    4.3649   19.8724   28.3056 H    0  0  0  0  0  0  0  0  0  0  0  0
    5.6230   18.0036   29.4954 H    0  0  0  0  0  0  0  0  0  0  0  0
    6.4128   19.5551   29.5365 H    0  0  0  0  0  0  0  0  0  0  0  0
    6.3925   16.4571   27.1624 H    0  0  0  0  0  0  0  0  0  0  0  0
    7.2101   15.0232   25.8576 H    0  0  0  0  0  0  0  0  0  0  0  0
    9.3840   13.1096   25.1440 H    0  0  0  0  0  0  0  0  0  0  0  0
   10.7853   14.6384   23.8989 H    0  0  0  0  0  0  0  0  0  0  0  0
    9.8229   16.1419   23.9942 H    0  0  0  0  0  0  0  0  0  0  0  0
   11.9553   15.7342   22.2458 H    0  0  0  0  0  0  0  0  0  0  0  0
   10.6822   16.9569   22.0387 H    0  0  0  0  0  0  0  0  0  0  0  0
   10.8486   14.1248   20.9852 H    0  0  0  0  0  0  0  0  0  0  0  0
   10.8470   15.2241   17.7144 H    0  0  0  0  0  0  0  0  0  0  0  0
   11.2451   14.0166   18.9145 H    0  0  0  0  0  0  0  0  0  0  0  0
    8.5319   13.8445   20.9027 H    0  0  0  0  0  0  0  0  0  0  0  0
    8.1546   15.5496   21.1856 H    0  0  0  0  0  0  0  0  0  0  0  0
    6.0632   13.4146   26.7257 H    0  0  0  0  0  0  0  0  0  0  0  0
    4.7121   11.5460   27.4974 H    0  0  0  0  0  0  0  0  0  0  0  0
    5.2305    9.2318   26.7861 H    0  0  0  0  0  0  0  0  0  0  0  0
    7.0790    8.7863   25.2731 H    0  0  0  0  0  0  0  0  0  0  0  0
    9.1573    8.1331   24.3266 H    0  0  0  0  0  0  0  0  0  0  0  0
    9.8397    8.5805   22.7552 H    0  0  0  0  0  0  0  0  0  0  0  0
    8.0801    8.5793   22.9713 H    0  0  0  0  0  0  0  0  0  0  0  0
   10.4589   17.5231   27.9782 H    0  0  0  0  0  0  0  0  0  0  0  0
  8  9  1  0  0  0  0
  6  8  1  0  0  0  0
  5  6  1  0  0  0  0
  4  5  2  0  0  0  0
  3  4  1  0  0  0  0
  2  3  1  0  0  0  0
  1  2  1  0  0  0  0
 30  1  1  0  0  0  0
 31  1  1  0  0  0  0
 32  1  1  0  0  0  0
 33  2  1  0  0  0  0
 34  2  1  0  0  0  0
 35  4  1  0  0  0  0
 28  5  1  0  0  0  0
  7  6  2  0  0  0  0
 36  8  1  0  0  0  0
 10  9  1  0  0  0  0
 20  9  1  0  0  0  0
 37  9  1  0  0  0  0
 11 10  2  0  0  0  0
 12 10  1  0  0  0  0
 13 12  1  0  0  0  0
 14 13  1  0  0  0  0
 38 13  1  0  0  0  0
 39 13  1  0  0  0  0
 15 14  1  0  0  0  0
 40 14  1  0  0  0  0
 41 14  1  0  0  0  0
 16 15  1  0  0  0  0
 19 15  1  0  0  0  0
 42 15  1  0  0  0  0
 17 16  1  0  0  0  0
 18 16  2  0  0  0  0
 43 17  1  0  0  0  0
 44 17  1  0  0  0  0
 45 19  1  0  0  0  0
 46 19  1  0  0  0  0
 21 20  2  0  0  0  0
 22 21  1  0  0  0  0
 47 21  1  0  0  0  0
 23 22  2  0  0  0  0
 48 22  1  0  0  0  0
 24 23  1  0  0  0  0
 49 23  1  0  0  0  0
 25 24  2  0  0  0  0
 50 24  1  0  0  0  0
 26 25  1  0  0  0  0
 27 26  1  0  0  0  0
 51 27  1  0  0  0  0
 52 27  1  0  0  0  0
 53 27  1  0  0  0  0
 29 28  2  0  0  0  0
 54 28  1  0  0  0  0
 19 12  1  0  0  0  0
 25 20  1  0  0  0  0
 29  3  1  0  0  0  0
M  END
>  <FittedScore>
-42.38

$$$$
