A71EV2A-x4390a_best-RMSD
  FITTED

 40 41     0  0  0  0  0  0  0999 V2000
   10.6306   15.0132   25.2141 O    0  0  0  0  0  0  0  0  0  0  0  0
   10.5637   15.1764   24.0111 C    0  0  0  0  0  0  0  0  0  0  0  0
   11.7338   15.8622   23.2905 C    0  0  0  0  0  0  0  0  0  0  0  0
   11.7805   15.6462   21.7570 C    0  0  0  0  0  0  0  0  0  0  0  0
   10.3658   15.7964   21.1601 C    0  0  0  0  0  0  0  0  0  0  0  0
   10.2798   15.7693   19.6431 C    0  0  0  0  0  0  0  0  0  0  0  0
    9.4181   16.4186   19.1021 O    0  0  0  0  0  0  0  0  0  0  0  0
   10.8844   14.7870   18.9487 N    0  0  0  0  0  0  0  0  0  0  0  0
    9.3839   14.7958   21.8113 C    0  0  0  0  0  0  0  0  0  0  0  0
    9.4478   14.7963   23.2999 N    0  0  0  0  0  0  0  0  0  0  0  0
    8.2714   14.1430   23.9349 C    0  0  0  0  0  0  0  0  0  0  0  0
    8.4843   12.6152   24.0544 C    0  0  0  0  0  0  0  0  0  0  0  0
    7.4863   11.7649   24.8440 C    0  0  0  0  0  0  0  0  0  0  0  0
    7.6735   10.3638   24.8807 C    0  0  0  0  0  0  0  0  0  0  0  0
    8.8128    9.8200   24.2942 O    0  0  0  0  0  0  0  0  0  0  0  0
    8.8141    8.6348   23.4676 C    0  0  0  0  0  0  0  0  0  0  0  0
    6.4021   12.3279   25.5574 C    0  0  0  0  0  0  0  0  0  0  0  0
    5.5228   11.5159   26.2835 C    0  0  0  0  0  0  0  0  0  0  0  0
    5.6986   10.1298   26.2895 C    0  0  0  0  0  0  0  0  0  0  0  0
    6.7542    9.5557   25.5752 C    0  0  0  0  0  0  0  0  0  0  0  0
   11.6854   16.9358   23.5014 H    0  0  0  0  0  0  0  0  0  0  0  0
   12.6748   15.5066   23.7223 H    0  0  0  0  0  0  0  0  0  0  0  0
   12.4628   16.3760   21.3078 H    0  0  0  0  0  0  0  0  0  0  0  0
   12.1839   14.6502   21.5474 H    0  0  0  0  0  0  0  0  0  0  0  0
   10.0310   16.8034   21.4525 H    0  0  0  0  0  0  0  0  0  0  0  0
   11.2614   13.9729   19.4303 H    0  0  0  0  0  0  0  0  0  0  0  0
   10.7713   14.7661   17.9376 H    0  0  0  0  0  0  0  0  0  0  0  0
    8.3742   15.0422   21.4613 H    0  0  0  0  0  0  0  0  0  0  0  0
    9.6102   13.7861   21.4502 H    0  0  0  0  0  0  0  0  0  0  0  0
    8.1118   14.5852   24.9198 H    0  0  0  0  0  0  0  0  0  0  0  0
    7.3496   14.3450   23.3821 H    0  0  0  0  0  0  0  0  0  0  0  0
    8.5248   12.2139   23.0383 H    0  0  0  0  0  0  0  0  0  0  0  0
    9.4754   12.4419   24.4842 H    0  0  0  0  0  0  0  0  0  0  0  0
    9.8130    8.4910   23.0515 H    0  0  0  0  0  0  0  0  0  0  0  0
    8.0978    8.7446   22.6507 H    0  0  0  0  0  0  0  0  0  0  0  0
    8.5648    7.7423   24.0505 H    0  0  0  0  0  0  0  0  0  0  0  0
    6.2180   13.3985   25.5712 H    0  0  0  0  0  0  0  0  0  0  0  0
    4.6993   11.9679   26.8310 H    0  0  0  0  0  0  0  0  0  0  0  0
    5.0134    9.4974   26.8502 H    0  0  0  0  0  0  0  0  0  0  0  0
    6.8766    8.4756   25.6119 H    0  0  0  0  0  0  0  0  0  0  0  0
 11 12  1  0  0  0  0
 10 11  1  0  0  0  0
  9 10  1  0  0  0  0
  5  9  1  0  0  0  0
  6  5  1  0  0  0  0
  4  5  1  0  0  0  0
  3  4  1  0  0  0  0
  2  3  1  0  0  0  0
  1  2  2  0  0  0  0
 21  3  1  0  0  0  0
 22  3  1  0  0  0  0
 23  4  1  0  0  0  0
 24  4  1  0  0  0  0
 25  5  1  0  0  0  0
  7  6  2  0  0  0  0
  8  6  1  0  0  0  0
 26  8  1  0  0  0  0
 27  8  1  0  0  0  0
 28  9  1  0  0  0  0
 29  9  1  0  0  0  0
 30 11  1  0  0  0  0
 31 11  1  0  0  0  0
 32 12  1  0  0  0  0
 33 12  1  0  0  0  0
 13 12  1  0  0  0  0
 14 13  1  0  0  0  0
 20 14  2  0  0  0  0
 15 14  1  0  0  0  0
 16 15  1  0  0  0  0
 34 16  1  0  0  0  0
 35 16  1  0  0  0  0
 36 16  1  0  0  0  0
 17 13  2  0  0  0  0
 37 17  1  0  0  0  0
 18 17  1  0  0  0  0
 38 18  1  0  0  0  0
 19 18  2  0  0  0  0
 39 19  1  0  0  0  0
 40 20  1  0  0  0  0
 10  2  1  0  0  0  0
 20 19  1  0  0  0  0
M  END
>  <FittedScore>
-33.91

$$$$
