A71EV2A-x5039b_lowest-energy
  FITTED

 38 39     0  0  0  0  0  0  0999 V2000
    9.6902   16.7447   19.4338 O    0  0  0  0  0  0  0  0  0  0  0  0
   10.2380   15.7095   19.7701 C    0  0  0  0  0  0  0  0  0  0  0  0
   10.6644   14.8342   18.8366 N    0  0  0  0  0  0  0  0  0  0  0  0
   10.3372   15.2248   21.2180 C    0  0  0  0  0  0  0  0  0  0  0  0
   11.3424   16.0885   22.0404 C    0  0  0  0  0  0  0  0  0  0  0  0
   11.3478   15.6557   23.5345 C    0  0  0  0  0  0  0  0  0  0  0  0
    9.9115   15.5576   24.1123 C    0  0  0  0  0  0  0  0  0  0  0  0
    8.9336   15.1435   21.9021 C    0  0  0  0  0  0  0  0  0  0  0  0
    9.0074   14.6536   23.3172 N    0  0  0  0  0  0  0  0  0  0  0  0
    8.2673   13.5897   23.7971 C    0  0  0  0  0  0  0  0  0  0  0  0
    7.4271   13.0387   23.1006 O    0  0  0  0  0  0  0  0  0  0  0  0
    8.5149   13.0967   25.2339 C    0  0  0  0  0  0  0  0  0  0  0  0
    7.7671   11.8119   25.6125 C    0  0  0  0  0  0  0  0  0  0  0  0
    8.1267   10.5244   25.1300 C    0  0  0  0  0  0  0  0  0  0  0  0
    9.5457   10.3171   24.0597 S    0  0  0  0  0  0  0  0  0  0  0  0
    9.6358    8.5540   23.6265 C    0  0  0  0  0  0  0  0  0  0  0  0
    6.6455   11.8927   26.4640 C    0  0  0  0  0  0  0  0  0  0  0  0
    5.9413   10.7876   26.8313 N    0  0  0  0  0  0  0  0  0  0  0  0
    6.3436    9.5936   26.3215 C    0  0  0  0  0  0  0  0  0  0  0  0
    7.3999    9.4221   25.4786 N    0  0  0  0  0  0  0  0  0  0  0  0
   10.9448   13.8967   19.1131 H    0  0  0  0  0  0  0  0  0  0  0  0
   10.5621   15.0519   17.8515 H    0  0  0  0  0  0  0  0  0  0  0  0
   10.7314   14.2002   21.2299 H    0  0  0  0  0  0  0  0  0  0  0  0
   12.3469   15.9679   21.6257 H    0  0  0  0  0  0  0  0  0  0  0  0
   11.0893   17.1519   21.9627 H    0  0  0  0  0  0  0  0  0  0  0  0
   11.8505   14.6876   23.6312 H    0  0  0  0  0  0  0  0  0  0  0  0
   11.9306   16.3714   24.1179 H    0  0  0  0  0  0  0  0  0  0  0  0
   10.0059   15.2737   25.1569 H    0  0  0  0  0  0  0  0  0  0  0  0
    9.4725   16.5591   24.1397 H    0  0  0  0  0  0  0  0  0  0  0  0
    8.3000   14.5087   21.2734 H    0  0  0  0  0  0  0  0  0  0  0  0
    8.4518   16.1290   21.8911 H    0  0  0  0  0  0  0  0  0  0  0  0
    9.5825   12.9344   25.4077 H    0  0  0  0  0  0  0  0  0  0  0  0
    8.2264   13.8943   25.9240 H    0  0  0  0  0  0  0  0  0  0  0  0
    8.7603    8.2647   23.0443 H    0  0  0  0  0  0  0  0  0  0  0  0
    9.6931    7.9554   24.5328 H    0  0  0  0  0  0  0  0  0  0  0  0
   10.5318    8.3738   23.0330 H    0  0  0  0  0  0  0  0  0  0  0  0
    6.3187   12.8586   26.8391 H    0  0  0  0  0  0  0  0  0  0  0  0
    5.7812    8.7090   26.6094 H    0  0  0  0  0  0  0  0  0  0  0  0
  9 10  1  0  0  0  0
  7  9  1  0  0  0  0
  6  7  1  0  0  0  0
  5  6  1  0  0  0  0
  4  5  1  0  0  0  0
  2  4  1  0  0  0  0
  1  2  2  0  0  0  0
  3  2  1  0  0  0  0
 21  3  1  0  0  0  0
 22  3  1  0  0  0  0
 23  4  1  0  0  0  0
 24  5  1  0  0  0  0
 25  5  1  0  0  0  0
 26  6  1  0  0  0  0
 27  6  1  0  0  0  0
 28  7  1  0  0  0  0
 29  7  1  0  0  0  0
  8  4  1  0  0  0  0
 30  8  1  0  0  0  0
 31  8  1  0  0  0  0
 11 10  2  0  0  0  0
 12 10  1  0  0  0  0
 32 12  1  0  0  0  0
 33 12  1  0  0  0  0
 13 12  1  0  0  0  0
 14 13  1  0  0  0  0
 20 14  2  0  0  0  0
 15 14  1  0  0  0  0
 16 15  1  0  0  0  0
 34 16  1  0  0  0  0
 35 16  1  0  0  0  0
 36 16  1  0  0  0  0
 17 13  2  0  0  0  0
 37 17  1  0  0  0  0
 18 17  1  0  0  0  0
 19 18  2  0  0  0  0
 38 19  1  0  0  0  0
  9  8  1  0  0  0  0
 20 19  1  0  0  0  0
M  END
>  <FittedScore>
-30.67

$$$$
