A71EV2A-x5039b_best-RMSD
  FITTED

 38 39     0  0  0  0  0  0  0999 V2000
    9.7792   16.7297   19.4056 O    0  0  0  0  0  0  0  0  0  0  0  0
   10.2935   15.6761   19.7373 C    0  0  0  0  0  0  0  0  0  0  0  0
   10.7478   14.8105   18.8065 N    0  0  0  0  0  0  0  0  0  0  0  0
   10.3643   15.1835   21.1862 C    0  0  0  0  0  0  0  0  0  0  0  0
   11.3884   16.0132   22.0185 C    0  0  0  0  0  0  0  0  0  0  0  0
   11.3929   15.5714   23.5072 C    0  0  0  0  0  0  0  0  0  0  0  0
    9.9515   15.5157   24.0878 C    0  0  0  0  0  0  0  0  0  0  0  0
    8.9602   15.1339   21.8726 C    0  0  0  0  0  0  0  0  0  0  0  0
    9.0249   14.6361   23.2868 N    0  0  0  0  0  0  0  0  0  0  0  0
    8.2865   13.5720   23.7673 C    0  0  0  0  0  0  0  0  0  0  0  0
    7.4369   13.0327   23.0729 O    0  0  0  0  0  0  0  0  0  0  0  0
    8.5668   13.0487   25.1892 C    0  0  0  0  0  0  0  0  0  0  0  0
    7.8164   11.7681   25.5743 C    0  0  0  0  0  0  0  0  0  0  0  0
    8.1662   10.4848   25.0855 C    0  0  0  0  0  0  0  0  0  0  0  0
    9.5807   10.2732   24.0110 S    0  0  0  0  0  0  0  0  0  0  0  0
    9.6328    8.5030   23.6044 C    0  0  0  0  0  0  0  0  0  0  0  0
    6.7125   11.8494   26.4508 C    0  0  0  0  0  0  0  0  0  0  0  0
    6.0003   10.7518   26.8192 N    0  0  0  0  0  0  0  0  0  0  0  0
    6.3835    9.5600   26.2885 C    0  0  0  0  0  0  0  0  0  0  0  0
    7.4328    9.3883   25.4394 N    0  0  0  0  0  0  0  0  0  0  0  0
   11.0509   13.8777   19.0797 H    0  0  0  0  0  0  0  0  0  0  0  0
   10.6912   15.0394   17.8163 H    0  0  0  0  0  0  0  0  0  0  0  0
   10.7350   14.1491   21.1919 H    0  0  0  0  0  0  0  0  0  0  0  0
   12.3902   15.8775   21.6071 H    0  0  0  0  0  0  0  0  0  0  0  0
   11.1642   17.0795   21.9509 H    0  0  0  0  0  0  0  0  0  0  0  0
   11.8579   14.5827   23.5969 H    0  0  0  0  0  0  0  0  0  0  0  0
   11.9977   16.2641   24.0996 H    0  0  0  0  0  0  0  0  0  0  0  0
   10.0393   15.2259   25.1349 H    0  0  0  0  0  0  0  0  0  0  0  0
    9.5386   16.5316   24.1184 H    0  0  0  0  0  0  0  0  0  0  0  0
    8.3138   14.5173   21.2458 H    0  0  0  0  0  0  0  0  0  0  0  0
    8.5022   16.1281   21.8600 H    0  0  0  0  0  0  0  0  0  0  0  0
    9.6388   12.8731   25.3225 H    0  0  0  0  0  0  0  0  0  0  0  0
    8.3120   13.8360   25.9049 H    0  0  0  0  0  0  0  0  0  0  0  0
    8.7185    8.2115   23.0822 H    0  0  0  0  0  0  0  0  0  0  0  0
    9.7364    7.9107   24.5120 H    0  0  0  0  0  0  0  0  0  0  0  0
   10.4817    8.2942   22.9575 H    0  0  0  0  0  0  0  0  0  0  0  0
    6.4048   12.8143   26.8448 H    0  0  0  0  0  0  0  0  0  0  0  0
    5.8182    8.6740   26.5756 H    0  0  0  0  0  0  0  0  0  0  0  0
  9 10  1  0  0  0  0
  7  9  1  0  0  0  0
  6  7  1  0  0  0  0
  5  6  1  0  0  0  0
  4  5  1  0  0  0  0
  2  4  1  0  0  0  0
  1  2  2  0  0  0  0
  3  2  1  0  0  0  0
 21  3  1  0  0  0  0
 22  3  1  0  0  0  0
 23  4  1  0  0  0  0
 24  5  1  0  0  0  0
 25  5  1  0  0  0  0
 26  6  1  0  0  0  0
 27  6  1  0  0  0  0
 28  7  1  0  0  0  0
 29  7  1  0  0  0  0
  8  4  1  0  0  0  0
 30  8  1  0  0  0  0
 31  8  1  0  0  0  0
 11 10  2  0  0  0  0
 12 10  1  0  0  0  0
 32 12  1  0  0  0  0
 33 12  1  0  0  0  0
 13 12  1  0  0  0  0
 14 13  1  0  0  0  0
 20 14  2  0  0  0  0
 15 14  1  0  0  0  0
 16 15  1  0  0  0  0
 34 16  1  0  0  0  0
 35 16  1  0  0  0  0
 36 16  1  0  0  0  0
 17 13  2  0  0  0  0
 37 17  1  0  0  0  0
 18 17  1  0  0  0  0
 19 18  2  0  0  0  0
 38 19  1  0  0  0  0
  9  8  1  0  0  0  0
 20 19  1  0  0  0  0
M  END
>  <FittedScore>
-30.47

$$$$
