A71EV2A-x5052a_lowest-energy
  FITTED

 40 42     0  0  0  0  0  0  0999 V2000
   10.6969   13.6816   25.1159 O    0  0  0  0  0  0  0  0  0  0  0  0
   10.4972   14.2357   24.0504 C    0  0  0  0  0  0  0  0  0  0  0  0
   11.6178   15.0824   23.4413 C    0  0  0  0  0  0  0  0  0  0  0  0
   11.6258   15.0905   21.8947 C    0  0  0  0  0  0  0  0  0  0  0  0
    9.2936   14.1394   23.3810 N    0  0  0  0  0  0  0  0  0  0  0  0
    9.1032   14.6027   21.9650 C    0  0  0  0  0  0  0  0  0  0  0  0
   10.2261   15.5010   21.3657 C    0  0  0  0  0  0  0  0  0  0  0  0
   10.1173   15.6275   19.8395 C    0  0  0  0  0  0  0  0  0  0  0  0
    9.3856   16.4441   19.3163 O    0  0  0  0  0  0  0  0  0  0  0  0
   10.6937   14.6875   19.0649 N    0  0  0  0  0  0  0  0  0  0  0  0
    8.0934   13.3902   23.9095 C    0  0  0  0  0  0  0  0  0  0  0  0
    8.3062   11.8677   24.0861 C    0  0  0  0  0  0  0  0  0  0  0  0
    9.2723   11.1590   23.3364 C    0  0  0  0  0  0  0  0  0  0  0  0
    9.3566    9.7654   23.4053 C    0  0  0  0  0  0  0  0  0  0  0  0
    8.4505    9.0527   24.1914 C    0  0  0  0  0  0  0  0  0  0  0  0
    7.5048    9.7345   24.9653 C    0  0  0  0  0  0  0  0  0  0  0  0
    7.4352   11.1376   24.9395 C    0  0  0  0  0  0  0  0  0  0  0  0
    6.4220   11.8372   25.8594 C    0  0  0  0  0  0  0  0  0  0  0  0
    6.1775   13.3492   25.6075 C    0  0  0  0  0  0  0  0  0  0  0  0
    7.4694   14.0801   25.1597 C    0  0  0  0  0  0  0  0  0  0  0  0
   11.5166   16.1086   23.8059 H    0  0  0  0  0  0  0  0  0  0  0  0
   12.5899   14.7252   23.7945 H    0  0  0  0  0  0  0  0  0  0  0  0
   12.3821   15.7943   21.5353 H    0  0  0  0  0  0  0  0  0  0  0  0
   11.9109   14.0963   21.5325 H    0  0  0  0  0  0  0  0  0  0  0  0
    8.1650   15.1595   21.8861 H    0  0  0  0  0  0  0  0  0  0  0  0
    8.9902   13.7133   21.3364 H    0  0  0  0  0  0  0  0  0  0  0  0
   10.0508   16.5125   21.7516 H    0  0  0  0  0  0  0  0  0  0  0  0
   11.0879   13.8477   19.4797 H    0  0  0  0  0  0  0  0  0  0  0  0
   10.6453   14.7740   18.0559 H    0  0  0  0  0  0  0  0  0  0  0  0
    7.2962   13.4349   23.1587 H    0  0  0  0  0  0  0  0  0  0  0  0
    9.9608   11.6669   22.6660 H    0  0  0  0  0  0  0  0  0  0  0  0
   10.1086    9.2480   22.8156 H    0  0  0  0  0  0  0  0  0  0  0  0
    8.4935    7.9669   24.2184 H    0  0  0  0  0  0  0  0  0  0  0  0
    6.8240    9.1632   25.5917 H    0  0  0  0  0  0  0  0  0  0  0  0
    5.4565   11.3282   25.7861 H    0  0  0  0  0  0  0  0  0  0  0  0
    6.7604   11.7077   26.8893 H    0  0  0  0  0  0  0  0  0  0  0  0
    5.4024   13.4733   24.8448 H    0  0  0  0  0  0  0  0  0  0  0  0
    5.7950   13.8165   26.5190 H    0  0  0  0  0  0  0  0  0  0  0  0
    7.2401   15.1246   24.9321 H    0  0  0  0  0  0  0  0  0  0  0  0
    8.1727   14.0806   25.9989 H    0  0  0  0  0  0  0  0  0  0  0  0
  2  5  1  0  0  0  0
  3  2  1  0  0  0  0
 21  3  1  0  0  0  0
  1  2  2  0  0  0  0
 22  3  1  0  0  0  0
  4  3  1  0  0  0  0
 23  4  1  0  0  0  0
 24  4  1  0  0  0  0
  6  5  1  0  0  0  0
 25  6  1  0  0  0  0
 26  6  1  0  0  0  0
  7  4  1  0  0  0  0
  8  7  1  0  0  0  0
 27  7  1  0  0  0  0
  9  8  2  0  0  0  0
 10  8  1  0  0  0  0
 28 10  1  0  0  0  0
 29 10  1  0  0  0  0
 11  5  1  0  0  0  0
 20 11  1  0  0  0  0
 30 11  1  0  0  0  0
 12 11  1  0  0  0  0
 13 12  1  0  0  0  0
 31 13  1  0  0  0  0
 14 13  2  0  0  0  0
 32 14  1  0  0  0  0
 15 14  1  0  0  0  0
 33 15  1  0  0  0  0
 16 15  2  0  0  0  0
 34 16  1  0  0  0  0
 17 16  1  0  0  0  0
 18 17  1  0  0  0  0
 35 18  1  0  0  0  0
 36 18  1  0  0  0  0
 19 18  1  0  0  0  0
 37 19  1  0  0  0  0
 38 19  1  0  0  0  0
 39 20  1  0  0  0  0
 40 20  1  0  0  0  0
  7  6  1  0  0  0  0
 17 12  2  0  0  0  0
 20 19  1  0  0  0  0
M  END
>  <FittedScore>
-33.32

$$$$
