A71EV2A-x5052a_best-RMSD
  FITTED

 40 42     0  0  0  0  0  0  0999 V2000
   10.4037   13.7043   25.0961 O    0  0  0  0  0  0  0  0  0  0  0  0
   10.3158   14.1850   23.9818 C    0  0  0  0  0  0  0  0  0  0  0  0
   11.5181   14.9463   23.4048 C    0  0  0  0  0  0  0  0  0  0  0  0
   11.5585   15.0143   21.8584 C    0  0  0  0  0  0  0  0  0  0  0  0
    9.1584   14.0904   23.2303 N    0  0  0  0  0  0  0  0  0  0  0  0
    9.0358   14.5864   21.8267 C    0  0  0  0  0  0  0  0  0  0  0  0
   10.1912   15.4867   21.3154 C    0  0  0  0  0  0  0  0  0  0  0  0
   10.1220   15.6449   19.7927 C    0  0  0  0  0  0  0  0  0  0  0  0
    9.3626   16.4429   19.2865 O    0  0  0  0  0  0  0  0  0  0  0  0
   10.6640   14.6848   19.0223 N    0  0  0  0  0  0  0  0  0  0  0  0
    7.9348   13.3351   23.6746 C    0  0  0  0  0  0  0  0  0  0  0  0
    8.2162   11.8477   23.9941 C    0  0  0  0  0  0  0  0  0  0  0  0
    9.1797   11.1115   23.2638 C    0  0  0  0  0  0  0  0  0  0  0  0
    9.2745    9.7261   23.3928 C    0  0  0  0  0  0  0  0  0  0  0  0
    8.3893    9.0484   24.2332 C    0  0  0  0  0  0  0  0  0  0  0  0
    7.4730    9.7617   25.0136 C    0  0  0  0  0  0  0  0  0  0  0  0
    7.3916   11.1635   24.9205 C    0  0  0  0  0  0  0  0  0  0  0  0
    6.4124   11.9183   25.8269 C    0  0  0  0  0  0  0  0  0  0  0  0
    5.9528   13.3056   25.3078 C    0  0  0  0  0  0  0  0  0  0  0  0
    7.1447   14.1271   24.7626 C    0  0  0  0  0  0  0  0  0  0  0  0
   11.5031   15.9641   23.8112 H    0  0  0  0  0  0  0  0  0  0  0  0
   12.4437   14.4787   23.7583 H    0  0  0  0  0  0  0  0  0  0  0  0
   12.3451   15.7070   21.5446 H    0  0  0  0  0  0  0  0  0  0  0  0
   11.8241   14.0275   21.4729 H    0  0  0  0  0  0  0  0  0  0  0  0
    8.1050   15.1541   21.7234 H    0  0  0  0  0  0  0  0  0  0  0  0
    8.9416   13.7142   21.1693 H    0  0  0  0  0  0  0  0  0  0  0  0
   10.0241   16.4830   21.7442 H    0  0  0  0  0  0  0  0  0  0  0  0
   10.6380   14.7623   18.0095 H    0  0  0  0  0  0  0  0  0  0  0  0
   10.9837   13.8194   19.4446 H    0  0  0  0  0  0  0  0  0  0  0  0
    7.2261   13.2633   22.8418 H    0  0  0  0  0  0  0  0  0  0  0  0
    9.8346   11.5950   22.5430 H    0  0  0  0  0  0  0  0  0  0  0  0
   10.0107    9.1815   22.8065 H    0  0  0  0  0  0  0  0  0  0  0  0
    8.4377    7.9649   24.3054 H    0  0  0  0  0  0  0  0  0  0  0  0
    6.8200    9.2158   25.6912 H    0  0  0  0  0  0  0  0  0  0  0  0
    5.5189   11.3095   25.9980 H    0  0  0  0  0  0  0  0  0  0  0  0
    6.8903   12.0516   26.8013 H    0  0  0  0  0  0  0  0  0  0  0  0
    5.2023   13.1729   24.5199 H    0  0  0  0  0  0  0  0  0  0  0  0
    5.4678   13.8577   26.1158 H    0  0  0  0  0  0  0  0  0  0  0  0
    6.7755   15.0643   24.3339 H    0  0  0  0  0  0  0  0  0  0  0  0
    7.7931   14.3955   25.6007 H    0  0  0  0  0  0  0  0  0  0  0  0
  2  5  1  0  0  0  0
  3  2  1  0  0  0  0
 21  3  1  0  0  0  0
  1  2  2  0  0  0  0
 22  3  1  0  0  0  0
  4  3  1  0  0  0  0
 23  4  1  0  0  0  0
 24  4  1  0  0  0  0
  6  5  1  0  0  0  0
 25  6  1  0  0  0  0
 26  6  1  0  0  0  0
  7  4  1  0  0  0  0
  8  7  1  0  0  0  0
 27  7  1  0  0  0  0
  9  8  2  0  0  0  0
 10  8  1  0  0  0  0
 28 10  1  0  0  0  0
 29 10  1  0  0  0  0
 11  5  1  0  0  0  0
 20 11  1  0  0  0  0
 30 11  1  0  0  0  0
 12 11  1  0  0  0  0
 13 12  1  0  0  0  0
 31 13  1  0  0  0  0
 14 13  2  0  0  0  0
 32 14  1  0  0  0  0
 15 14  1  0  0  0  0
 33 15  1  0  0  0  0
 16 15  2  0  0  0  0
 34 16  1  0  0  0  0
 17 16  1  0  0  0  0
 18 17  1  0  0  0  0
 35 18  1  0  0  0  0
 36 18  1  0  0  0  0
 19 18  1  0  0  0  0
 37 19  1  0  0  0  0
 38 19  1  0  0  0  0
 39 20  1  0  0  0  0
 40 20  1  0  0  0  0
  7  6  1  0  0  0  0
 17 12  2  0  0  0  0
 20 19  1  0  0  0  0
M  END
>  <FittedScore>
-33.41

$$$$
