A71EV2A-x3521a_lowest-energy
  FITTED

 41 43     0  0  0  0  0  0  0999 V2000
    9.9185   13.7086   25.0580 CL   0  0  0  0  0  0  0  0  0  0  0  0
    9.0928   12.1806   25.0303 C    0  0  0  0  0  0  0  0  0  0  0  0
    9.7470   11.2149   24.2427 C    0  0  0  0  0  0  0  0  0  0  0  0
    9.2626    9.9078   24.1660 C    0  0  0  0  0  0  0  0  0  0  0  0
   10.0598    8.7390   23.1725 CL   0  0  0  0  0  0  0  0  0  0  0  0
    8.1399    9.5469   24.9104 C    0  0  0  0  0  0  0  0  0  0  0  0
    7.4695   10.5034   25.6779 C    0  0  0  0  0  0  0  0  0  0  0  0
    7.8917   11.8594   25.7464 C    0  0  0  0  0  0  0  0  0  0  0  0
    7.0627   12.9138   26.5934 C    0  0  0  0  0  0  0  0  0  0  0  0
    5.6211   12.4290   27.0810 C    0  0  0  0  0  0  0  0  0  0  0  0
    4.9067   13.4101   28.0490 C    0  0  0  0  0  0  0  0  0  0  0  0
    5.7497   13.5665   29.2230 O    0  0  0  0  0  0  0  0  0  0  0  0
    7.1014   14.0726   29.0014 C    0  0  0  0  0  0  0  0  0  0  0  0
    7.8649   13.2441   27.9213 C    0  0  0  0  0  0  0  0  0  0  0  0
    6.8008   14.1885   25.7235 C    0  0  0  0  0  0  0  0  0  0  0  0
    7.0474   15.3273   26.0843 O    0  0  0  0  0  0  0  0  0  0  0  0
    6.1580   13.9794   24.5454 N    0  0  0  0  0  0  0  0  0  0  0  0
    5.5138   15.0252   23.7390 C    0  0  0  0  0  0  0  0  0  0  0  0
    4.6520   14.4456   22.5721 C    0  0  0  0  0  0  0  0  0  0  0  0
    4.1604   15.5304   24.3543 C    0  0  0  0  0  0  0  0  0  0  0  0
    3.6609   15.6002   22.8777 C    0  0  0  0  0  0  0  0  0  0  0  0
    2.2489   15.3865   22.5486 C    0  0  0  0  0  0  0  0  0  0  0  0
    1.1555   15.2180   22.2830 N    0  0  0  0  0  0  0  0  0  0  0  0
   10.6468   11.4770   23.6882 H    0  0  0  0  0  0  0  0  0  0  0  0
    7.7681    8.5253   24.8860 H    0  0  0  0  0  0  0  0  0  0  0  0
    6.5993   10.1382   26.2045 H    0  0  0  0  0  0  0  0  0  0  0  0
    4.9607   12.2044   26.2392 H    0  0  0  0  0  0  0  0  0  0  0  0
    5.7070   11.4967   27.6435 H    0  0  0  0  0  0  0  0  0  0  0  0
    4.7169   14.3803   27.5833 H    0  0  0  0  0  0  0  0  0  0  0  0
    3.9444   12.9991   28.3630 H    0  0  0  0  0  0  0  0  0  0  0  0
    7.0453   15.1252   28.7160 H    0  0  0  0  0  0  0  0  0  0  0  0
    7.6435   14.0210   29.9474 H    0  0  0  0  0  0  0  0  0  0  0  0
    8.7866   13.7784   27.6899 H    0  0  0  0  0  0  0  0  0  0  0  0
    8.1830   12.3071   28.3869 H    0  0  0  0  0  0  0  0  0  0  0  0
    5.9637   13.0198   24.2738 H    0  0  0  0  0  0  0  0  0  0  0  0
    6.2156   15.8146   23.4340 H    0  0  0  0  0  0  0  0  0  0  0  0
    5.1195   14.4713   21.5823 H    0  0  0  0  0  0  0  0  0  0  0  0
    4.2419   13.4374   22.7256 H    0  0  0  0  0  0  0  0  0  0  0  0
    4.2178   16.4863   24.8852 H    0  0  0  0  0  0  0  0  0  0  0  0
    3.6315   14.8150   24.9999 H    0  0  0  0  0  0  0  0  0  0  0  0
    3.8069   16.5450   22.3371 H    0  0  0  0  0  0  0  0  0  0  0  0
  9 15  1  0  0  0  0
  8  9  1  0  0  0  0
  7  8  2  0  0  0  0
  6  7  1  0  0  0  0
  4  6  2  0  0  0  0
  3  4  1  0  0  0  0
  2  3  2  0  0  0  0
  1  2  1  0  0  0  0
 24  3  1  0  0  0  0
  5  4  1  0  0  0  0
 25  6  1  0  0  0  0
 26  7  1  0  0  0  0
 14  9  1  0  0  0  0
 10  9  1  0  0  0  0
 27 10  1  0  0  0  0
 28 10  1  0  0  0  0
 11 10  1  0  0  0  0
 29 11  1  0  0  0  0
 30 11  1  0  0  0  0
 12 11  1  0  0  0  0
 13 12  1  0  0  0  0
 31 13  1  0  0  0  0
 32 13  1  0  0  0  0
 33 14  1  0  0  0  0
 34 14  1  0  0  0  0
 16 15  2  0  0  0  0
 17 15  1  0  0  0  0
 35 17  1  0  0  0  0
 18 17  1  0  0  0  0
 36 18  1  0  0  0  0
 19 18  1  0  0  0  0
 37 19  1  0  0  0  0
 38 19  1  0  0  0  0
 20 18  1  0  0  0  0
 39 20  1  0  0  0  0
 40 20  1  0  0  0  0
 21 19  1  0  0  0  0
 22 21  1  0  0  0  0
 41 21  1  0  0  0  0
 23 22  3  0  0  0  0
  8  2  1  0  0  0  0
 14 13  1  0  0  0  0
 21 20  1  0  0  0  0
M  END
>  <FittedScore>
-31.27

$$$$
