A71EV2A-x4336a_lowest-energy
  FITTED

 36 37     0  0  0  0  0  0  0999 V2000
    9.6092   11.6557   23.3195 CL   0  0  0  0  0  0  0  0  0  0  0  0
    8.3619   11.4394   24.5190 C    0  0  0  0  0  0  0  0  0  0  0  0
    7.8839   10.1408   24.8106 C    0  0  0  0  0  0  0  0  0  0  0  0
    8.6063    8.7190   24.1243 CL   0  0  0  0  0  0  0  0  0  0  0  0
    6.7973    9.9728   25.6847 C    0  0  0  0  0  0  0  0  0  0  0  0
    6.1967   11.0854   26.2868 C    0  0  0  0  0  0  0  0  0  0  0  0
    6.6887   12.3724   26.0299 C    0  0  0  0  0  0  0  0  0  0  0  0
    7.7805   12.5652   25.1602 C    0  0  0  0  0  0  0  0  0  0  0  0
    8.3001   13.9921   24.9137 C    0  0  0  0  0  0  0  0  0  0  0  0
    8.0023   14.5300   23.5046 C    0  0  0  0  0  0  0  0  0  0  0  0
    7.1352   13.9873   22.8377 O    0  0  0  0  0  0  0  0  0  0  0  0
    8.7774   15.5415   22.9754 N    0  0  0  0  0  0  0  0  0  0  0  0
    9.8142   16.3696   23.6831 C    0  0  0  0  0  0  0  0  0  0  0  0
   11.2334   16.2209   23.0653 C    0  0  0  0  0  0  0  0  0  0  0  0
   11.2311   16.4696   21.5292 C    0  0  0  0  0  0  0  0  0  0  0  0
    8.7219   15.9345   21.5346 C    0  0  0  0  0  0  0  0  0  0  0  0
   10.0832   15.6844   20.8247 C    0  0  0  0  0  0  0  0  0  0  0  0
   10.0114   16.0316   19.3367 C    0  0  0  0  0  0  0  0  0  0  0  0
    9.5590   17.0726   18.8905 O    0  0  0  0  0  0  0  0  0  0  0  0
   10.3705   15.0404   18.5058 N    0  0  0  0  0  0  0  0  0  0  0  0
    6.4179    8.9767   25.9053 H    0  0  0  0  0  0  0  0  0  0  0  0
    5.3546   10.9528   26.9637 H    0  0  0  0  0  0  0  0  0  0  0  0
    6.2125   13.2232   26.5139 H    0  0  0  0  0  0  0  0  0  0  0  0
    7.8905   14.6908   25.6474 H    0  0  0  0  0  0  0  0  0  0  0  0
    9.3768   13.9686   25.1028 H    0  0  0  0  0  0  0  0  0  0  0  0
    9.5134   17.4182   23.6251 H    0  0  0  0  0  0  0  0  0  0  0  0
    9.8708   16.1688   24.7524 H    0  0  0  0  0  0  0  0  0  0  0  0
   11.9166   16.9307   23.5410 H    0  0  0  0  0  0  0  0  0  0  0  0
   11.6329   15.2230   23.2679 H    0  0  0  0  0  0  0  0  0  0  0  0
   11.1180   17.5434   21.3386 H    0  0  0  0  0  0  0  0  0  0  0  0
   12.1956   16.1733   21.1069 H    0  0  0  0  0  0  0  0  0  0  0  0
    8.4487   16.9926   21.4649 H    0  0  0  0  0  0  0  0  0  0  0  0
    7.9443   15.4176   20.9686 H    0  0  0  0  0  0  0  0  0  0  0  0
   10.3043   14.6145   20.9492 H    0  0  0  0  0  0  0  0  0  0  0  0
   10.5774   14.1161   18.8720 H    0  0  0  0  0  0  0  0  0  0  0  0
   10.3673   15.1895   17.5101 H    0  0  0  0  0  0  0  0  0  0  0  0
  9 10  1  0  0  0  0
  8  9  1  0  0  0  0
  7  8  2  0  0  0  0
  6  7  1  0  0  0  0
  5  6  2  0  0  0  0
  3  5  1  0  0  0  0
  2  3  2  0  0  0  0
  1  2  1  0  0  0  0
  4  3  1  0  0  0  0
 21  5  1  0  0  0  0
 22  6  1  0  0  0  0
 23  7  1  0  0  0  0
 24  9  1  0  0  0  0
 25  9  1  0  0  0  0
 11 10  2  0  0  0  0
 12 10  1  0  0  0  0
 13 12  1  0  0  0  0
 26 13  1  0  0  0  0
 27 13  1  0  0  0  0
 14 13  1  0  0  0  0
 28 14  1  0  0  0  0
 29 14  1  0  0  0  0
 15 14  1  0  0  0  0
 30 15  1  0  0  0  0
 31 15  1  0  0  0  0
 16 12  1  0  0  0  0
 32 16  1  0  0  0  0
 33 16  1  0  0  0  0
 17 15  1  0  0  0  0
 18 17  1  0  0  0  0
 34 17  1  0  0  0  0
 19 18  2  0  0  0  0
 20 18  1  0  0  0  0
 35 20  1  0  0  0  0
 36 20  1  0  0  0  0
  8  2  1  0  0  0  0
 17 16  1  0  0  0  0
M  END
>  <FittedScore>
-31.10

$$$$
