A71EV2A-x4336a_best-RMSD
  FITTED

 36 37     0  0  0  0  0  0  0999 V2000
    9.8665   12.1340   23.4402 CL   0  0  0  0  0  0  0  0  0  0  0  0
    8.5973   11.4246   24.4057 C    0  0  0  0  0  0  0  0  0  0  0  0
    8.4838   10.0193   24.4918 C    0  0  0  0  0  0  0  0  0  0  0  0
    9.6705    8.9353   23.8328 CL   0  0  0  0  0  0  0  0  0  0  0  0
    7.4005    9.4418   25.1717 C    0  0  0  0  0  0  0  0  0  0  0  0
    6.4562   10.2538   25.8093 C    0  0  0  0  0  0  0  0  0  0  0  0
    6.5763   11.6491   25.7485 C    0  0  0  0  0  0  0  0  0  0  0  0
    7.6350   12.2509   25.0442 C    0  0  0  0  0  0  0  0  0  0  0  0
    7.7219   13.7911   24.9988 C    0  0  0  0  0  0  0  0  0  0  0  0
    7.5713   14.3656   23.5770 C    0  0  0  0  0  0  0  0  0  0  0  0
    6.6668   13.9182   22.8956 O    0  0  0  0  0  0  0  0  0  0  0  0
    8.4807   15.2691   23.0548 N    0  0  0  0  0  0  0  0  0  0  0  0
    9.4583   16.1092   23.8268 C    0  0  0  0  0  0  0  0  0  0  0  0
   10.9219   15.8789   23.3714 C    0  0  0  0  0  0  0  0  0  0  0  0
   11.0951   16.1900   21.8563 C    0  0  0  0  0  0  0  0  0  0  0  0
    8.5647   15.6075   21.5936 C    0  0  0  0  0  0  0  0  0  0  0  0
   10.0034   15.4842   20.9811 C    0  0  0  0  0  0  0  0  0  0  0  0
   10.0638   15.9725   19.5265 C    0  0  0  0  0  0  0  0  0  0  0  0
    9.7244   17.0796   19.1528 O    0  0  0  0  0  0  0  0  0  0  0  0
   10.4730   15.0774   18.6051 N    0  0  0  0  0  0  0  0  0  0  0  0
    7.3020    8.3590   25.2327 H    0  0  0  0  0  0  0  0  0  0  0  0
    5.6335    9.8007   26.3578 H    0  0  0  0  0  0  0  0  0  0  0  0
    5.8308   12.2620   26.2515 H    0  0  0  0  0  0  0  0  0  0  0  0
    6.9480   14.2529   25.6169 H    0  0  0  0  0  0  0  0  0  0  0  0
    8.6586   14.0392   25.4960 H    0  0  0  0  0  0  0  0  0  0  0  0
    9.1985   17.1616   23.6827 H    0  0  0  0  0  0  0  0  0  0  0  0
    9.3890   15.9890   24.9070 H    0  0  0  0  0  0  0  0  0  0  0  0
   11.5880   16.5135   23.9613 H    0  0  0  0  0  0  0  0  0  0  0  0
   11.2148   14.8435   23.5793 H    0  0  0  0  0  0  0  0  0  0  0  0
   11.0594   17.2701   21.7093 H    0  0  0  0  0  0  0  0  0  0  0  0
   12.0887   15.8637   21.5405 H    0  0  0  0  0  0  0  0  0  0  0  0
    8.1763   16.6196   21.4550 H    0  0  0  0  0  0  0  0  0  0  0  0
    7.9124   14.9694   20.9967 H    0  0  0  0  0  0  0  0  0  0  0  0
   10.2561   14.4169   20.9954 H    0  0  0  0  0  0  0  0  0  0  0  0
   10.4003   15.3173   17.6252 H    0  0  0  0  0  0  0  0  0  0  0  0
   10.7049   14.1243   18.8663 H    0  0  0  0  0  0  0  0  0  0  0  0
  9 10  1  0  0  0  0
  8  9  1  0  0  0  0
  7  8  2  0  0  0  0
  6  7  1  0  0  0  0
  5  6  2  0  0  0  0
  3  5  1  0  0  0  0
  2  3  2  0  0  0  0
  1  2  1  0  0  0  0
  4  3  1  0  0  0  0
 21  5  1  0  0  0  0
 22  6  1  0  0  0  0
 23  7  1  0  0  0  0
 24  9  1  0  0  0  0
 25  9  1  0  0  0  0
 11 10  2  0  0  0  0
 12 10  1  0  0  0  0
 13 12  1  0  0  0  0
 26 13  1  0  0  0  0
 27 13  1  0  0  0  0
 14 13  1  0  0  0  0
 28 14  1  0  0  0  0
 29 14  1  0  0  0  0
 15 14  1  0  0  0  0
 30 15  1  0  0  0  0
 31 15  1  0  0  0  0
 16 12  1  0  0  0  0
 32 16  1  0  0  0  0
 33 16  1  0  0  0  0
 17 15  1  0  0  0  0
 18 17  1  0  0  0  0
 34 17  1  0  0  0  0
 19 18  2  0  0  0  0
 20 18  1  0  0  0  0
 35 20  1  0  0  0  0
 36 20  1  0  0  0  0
  8  2  1  0  0  0  0
 17 16  1  0  0  0  0
M  END
>  <FittedScore>
-32.13

$$$$
