A71EV2A-x3054a_lowest-energy
  FITTED

 38 39     0  0  0  0  0  0  0999 V2000
   10.0622   16.9209   19.1582 O    0  0  0  0  0  0  0  0  0  0  0  0
   10.4826   15.8736   19.6100 C    0  0  0  0  0  0  0  0  0  0  0  0
   10.8661   14.8981   18.7710 N    0  0  0  0  0  0  0  0  0  0  0  0
   10.3802   15.4639   21.0791 C    0  0  0  0  0  0  0  0  0  0  0  0
   11.4195   16.1948   21.9782 C    0  0  0  0  0  0  0  0  0  0  0  0
   11.2726   15.7618   23.4693 C    0  0  0  0  0  0  0  0  0  0  0  0
    9.7958   15.8272   23.9581 C    0  0  0  0  0  0  0  0  0  0  0  0
    8.9467   15.6585   21.6537 C    0  0  0  0  0  0  0  0  0  0  0  0
    8.8562   15.0889   23.0403 N    0  0  0  0  0  0  0  0  0  0  0  0
    8.1136   13.9568   23.3220 C    0  0  0  0  0  0  0  0  0  0  0  0
    7.4164   13.4011   22.4892 O    0  0  0  0  0  0  0  0  0  0  0  0
    8.3671   13.3528   24.5155 N    0  0  0  0  0  0  0  0  0  0  0  0
    8.1081   11.9792   24.8048 C    0  0  0  0  0  0  0  0  0  0  0  0
    7.1000   11.6176   25.7129 C    0  0  0  0  0  0  0  0  0  0  0  0
    6.7666   10.2652   25.8763 C    0  0  0  0  0  0  0  0  0  0  0  0
    7.4463    9.2866   25.1379 C    0  0  0  0  0  0  0  0  0  0  0  0
    8.8158   10.9948   24.1002 C    0  0  0  0  0  0  0  0  0  0  0  0
    8.4929    9.6418   24.2684 C    0  0  0  0  0  0  0  0  0  0  0  0
    9.2520    8.5947   23.4739 C    0  0  0  0  0  0  0  0  0  0  0  0
   10.8211   15.0497   17.7688 H    0  0  0  0  0  0  0  0  0  0  0  0
   11.0166   13.9453   19.1128 H    0  0  0  0  0  0  0  0  0  0  0  0
   10.6003   14.3933   21.1636 H    0  0  0  0  0  0  0  0  0  0  0  0
   12.4315   15.9651   21.6376 H    0  0  0  0  0  0  0  0  0  0  0  0
   11.2929   17.2798   21.8986 H    0  0  0  0  0  0  0  0  0  0  0  0
   11.6500   14.7413   23.5930 H    0  0  0  0  0  0  0  0  0  0  0  0
   11.8933   16.4044   24.1026 H    0  0  0  0  0  0  0  0  0  0  0  0
    9.7578   15.4766   24.9914 H    0  0  0  0  0  0  0  0  0  0  0  0
    9.4845   16.8765   24.0218 H    0  0  0  0  0  0  0  0  0  0  0  0
    8.2184   15.2255   20.9619 H    0  0  0  0  0  0  0  0  0  0  0  0
    8.6947   16.7232   21.6780 H    0  0  0  0  0  0  0  0  0  0  0  0
    9.0147   13.7970   25.1495 H    0  0  0  0  0  0  0  0  0  0  0  0
    6.5507   12.3779   26.2646 H    0  0  0  0  0  0  0  0  0  0  0  0
    5.9725    9.9743   26.5582 H    0  0  0  0  0  0  0  0  0  0  0  0
    7.1623    8.2430   25.2543 H    0  0  0  0  0  0  0  0  0  0  0  0
    9.6045   11.2753   23.4025 H    0  0  0  0  0  0  0  0  0  0  0  0
    9.1595    8.7982   22.4058 H    0  0  0  0  0  0  0  0  0  0  0  0
    8.8805    7.5829   23.6566 H    0  0  0  0  0  0  0  0  0  0  0  0
   10.3168    8.6031   23.7322 H    0  0  0  0  0  0  0  0  0  0  0  0
  9 10  1  0  0  0  0
  7  9  1  0  0  0  0
  6  7  1  0  0  0  0
  5  6  1  0  0  0  0
  4  5  1  0  0  0  0
  2  4  1  0  0  0  0
  1  2  2  0  0  0  0
  3  2  1  0  0  0  0
 20  3  1  0  0  0  0
 21  3  1  0  0  0  0
 22  4  1  0  0  0  0
 23  5  1  0  0  0  0
 24  5  1  0  0  0  0
 25  6  1  0  0  0  0
 26  6  1  0  0  0  0
 27  7  1  0  0  0  0
 28  7  1  0  0  0  0
  8  4  1  0  0  0  0
 29  8  1  0  0  0  0
 30  8  1  0  0  0  0
 11 10  2  0  0  0  0
 12 10  1  0  0  0  0
 31 12  1  0  0  0  0
 13 12  1  0  0  0  0
 14 13  1  0  0  0  0
 32 14  1  0  0  0  0
 15 14  2  0  0  0  0
 33 15  1  0  0  0  0
 16 15  1  0  0  0  0
 34 16  1  0  0  0  0
 17 13  2  0  0  0  0
 35 17  1  0  0  0  0
 18 16  2  0  0  0  0
 19 18  1  0  0  0  0
 36 19  1  0  0  0  0
 37 19  1  0  0  0  0
 38 19  1  0  0  0  0
  9  8  1  0  0  0  0
 18 17  1  0  0  0  0
M  END
>  <FittedScore>
-34.33

$$$$
