A71EV2A-x3054a_best-RMSD
  FITTED

 38 39     0  0  0  0  0  0  0999 V2000
    9.9008   17.1093   19.3487 O    0  0  0  0  0  0  0  0  0  0  0  0
   10.2982   16.0240   19.7330 C    0  0  0  0  0  0  0  0  0  0  0  0
   10.6973   15.0818   18.8523 N    0  0  0  0  0  0  0  0  0  0  0  0
   10.2289   15.5475   21.1861 C    0  0  0  0  0  0  0  0  0  0  0  0
   11.4491   16.0408   22.0234 C    0  0  0  0  0  0  0  0  0  0  0  0
   11.3451   15.5581   23.5035 C    0  0  0  0  0  0  0  0  0  0  0  0
    9.9361   15.8192   24.1189 C    0  0  0  0  0  0  0  0  0  0  0  0
    8.8982   15.9462   21.8984 C    0  0  0  0  0  0  0  0  0  0  0  0
    8.8339   15.2842   23.2393 N    0  0  0  0  0  0  0  0  0  0  0  0
    8.1308   14.1104   23.4156 C    0  0  0  0  0  0  0  0  0  0  0  0
    7.6459   13.4908   22.4802 O    0  0  0  0  0  0  0  0  0  0  0  0
    8.1708   13.5559   24.6615 N    0  0  0  0  0  0  0  0  0  0  0  0
    7.9776   12.1696   24.9606 C    0  0  0  0  0  0  0  0  0  0  0  0
    7.0092   11.7715   25.8910 C    0  0  0  0  0  0  0  0  0  0  0  0
    6.7048   10.4084   26.0414 C    0  0  0  0  0  0  0  0  0  0  0  0
    7.3799    9.4494   25.2708 C    0  0  0  0  0  0  0  0  0  0  0  0
    8.7085   11.1977   24.2478 C    0  0  0  0  0  0  0  0  0  0  0  0
    8.4068    9.8362   24.3921 C    0  0  0  0  0  0  0  0  0  0  0  0
    9.1783    8.8129   23.5708 C    0  0  0  0  0  0  0  0  0  0  0  0
   10.8415   14.1221   19.1704 H    0  0  0  0  0  0  0  0  0  0  0  0
   10.7174   15.2909   17.8586 H    0  0  0  0  0  0  0  0  0  0  0  0
   10.2668   14.4502   21.2004 H    0  0  0  0  0  0  0  0  0  0  0  0
   12.3774   15.6617   21.5804 H    0  0  0  0  0  0  0  0  0  0  0  0
   11.5070   17.1351   21.9927 H    0  0  0  0  0  0  0  0  0  0  0  0
   11.5705   14.4899   23.5461 H    0  0  0  0  0  0  0  0  0  0  0  0
   12.1046   16.0668   24.1010 H    0  0  0  0  0  0  0  0  0  0  0  0
    9.9190   15.4053   25.1264 H    0  0  0  0  0  0  0  0  0  0  0  0
    9.7959   16.8964   24.2548 H    0  0  0  0  0  0  0  0  0  0  0  0
    8.0415   15.6839   21.2673 H    0  0  0  0  0  0  0  0  0  0  0  0
    8.8320   17.0353   22.0155 H    0  0  0  0  0  0  0  0  0  0  0  0
    8.4840   14.1116   25.4430 H    0  0  0  0  0  0  0  0  0  0  0  0
    6.4667   12.5128   26.4725 H    0  0  0  0  0  0  0  0  0  0  0  0
    5.9369   10.0991   26.7459 H    0  0  0  0  0  0  0  0  0  0  0  0
    7.1170    8.3984   25.3795 H    0  0  0  0  0  0  0  0  0  0  0  0
    9.4860   11.5035   23.5534 H    0  0  0  0  0  0  0  0  0  0  0  0
    8.7994    8.7713   22.5477 H    0  0  0  0  0  0  0  0  0  0  0  0
    9.1030    7.8134   23.9969 H    0  0  0  0  0  0  0  0  0  0  0  0
   10.2387    9.0741   23.5200 H    0  0  0  0  0  0  0  0  0  0  0  0
  9 10  1  0  0  0  0
  7  9  1  0  0  0  0
  6  7  1  0  0  0  0
  5  6  1  0  0  0  0
  4  5  1  0  0  0  0
  2  4  1  0  0  0  0
  1  2  2  0  0  0  0
  3  2  1  0  0  0  0
 20  3  1  0  0  0  0
 21  3  1  0  0  0  0
 22  4  1  0  0  0  0
 23  5  1  0  0  0  0
 24  5  1  0  0  0  0
 25  6  1  0  0  0  0
 26  6  1  0  0  0  0
 27  7  1  0  0  0  0
 28  7  1  0  0  0  0
  8  4  1  0  0  0  0
 29  8  1  0  0  0  0
 30  8  1  0  0  0  0
 11 10  2  0  0  0  0
 12 10  1  0  0  0  0
 31 12  1  0  0  0  0
 13 12  1  0  0  0  0
 14 13  1  0  0  0  0
 32 14  1  0  0  0  0
 15 14  2  0  0  0  0
 33 15  1  0  0  0  0
 16 15  1  0  0  0  0
 34 16  1  0  0  0  0
 17 13  2  0  0  0  0
 35 17  1  0  0  0  0
 18 16  2  0  0  0  0
 19 18  1  0  0  0  0
 36 19  1  0  0  0  0
 37 19  1  0  0  0  0
 38 19  1  0  0  0  0
  9  8  1  0  0  0  0
 18 17  1  0  0  0  0
M  END
>  <FittedScore>
-33.20

$$$$
