A71EV2A-x4751a_best-RMSD
  FITTED

 39 40     0  0  0  0  0  0  0999 V2000
    9.5839   17.0272   19.6277 F    0  0  0  0  0  0  0  0  0  0  0  0
    9.9526   15.7330   19.5309 C    0  0  0  0  0  0  0  0  0  0  0  0
   10.1965   15.0556   20.9111 C    0  0  0  0  0  0  0  0  0  0  0  0
   11.4625   15.6186   21.6255 C    0  0  0  0  0  0  0  0  0  0  0  0
   11.6504   14.9704   23.0197 C    0  0  0  0  0  0  0  0  0  0  0  0
   10.3577   15.0596   23.8660 C    0  0  0  0  0  0  0  0  0  0  0  0
    8.9361   15.0776   21.8394 C    0  0  0  0  0  0  0  0  0  0  0  0
    9.1491   14.4664   23.2006 N    0  0  0  0  0  0  0  0  0  0  0  0
    8.2631   13.5711   23.7680 C    0  0  0  0  0  0  0  0  0  0  0  0
    7.2499   13.2289   23.1814 O    0  0  0  0  0  0  0  0  0  0  0  0
    8.5651   12.9637   25.1566 C    0  0  0  0  0  0  0  0  0  0  0  0
    7.6983   11.7449   25.5061 C    0  0  0  0  0  0  0  0  0  0  0  0
    7.8445   10.5035   24.8357 C    0  0  0  0  0  0  0  0  0  0  0  0
    9.1543   10.2890   23.6246 S    0  0  0  0  0  0  0  0  0  0  0  0
    9.4416    8.5148   23.3934 C    0  0  0  0  0  0  0  0  0  0  0  0
    6.6942   11.8959   26.4851 C    0  0  0  0  0  0  0  0  0  0  0  0
    5.8188   10.8449   26.7762 C    0  0  0  0  0  0  0  0  0  0  0  0
    5.9257    9.6385   26.0788 C    0  0  0  0  0  0  0  0  0  0  0  0
    6.9277    9.4721   25.1156 C    0  0  0  0  0  0  0  0  0  0  0  0
    9.1797   15.1929   18.9797 H    0  0  0  0  0  0  0  0  0  0  0  0
   10.8557   15.6982   18.9185 H    0  0  0  0  0  0  0  0  0  0  0  0
   10.3971   14.0012   20.6929 H    0  0  0  0  0  0  0  0  0  0  0  0
   12.3489   15.4154   21.0186 H    0  0  0  0  0  0  0  0  0  0  0  0
   11.3917   16.7066   21.7336 H    0  0  0  0  0  0  0  0  0  0  0  0
   11.9440   13.9229   22.9061 H    0  0  0  0  0  0  0  0  0  0  0  0
   12.4664   15.4723   23.5481 H    0  0  0  0  0  0  0  0  0  0  0  0
   10.5817   14.6299   24.8394 H    0  0  0  0  0  0  0  0  0  0  0  0
   10.1434   16.1116   24.0798 H    0  0  0  0  0  0  0  0  0  0  0  0
    8.1235   14.5890   21.2948 H    0  0  0  0  0  0  0  0  0  0  0  0
    8.6014   16.1081   21.9877 H    0  0  0  0  0  0  0  0  0  0  0  0
    9.6073   12.6446   25.2279 H    0  0  0  0  0  0  0  0  0  0  0  0
    8.4497   13.7473   25.9112 H    0  0  0  0  0  0  0  0  0  0  0  0
    8.6000    8.0574   22.8720 H    0  0  0  0  0  0  0  0  0  0  0  0
    9.5999    8.0274   24.3608 H    0  0  0  0  0  0  0  0  0  0  0  0
   10.3361    8.3882   22.7834 H    0  0  0  0  0  0  0  0  0  0  0  0
    6.5715   12.8405   27.0132 H    0  0  0  0  0  0  0  0  0  0  0  0
    5.0454   10.9748   27.5275 H    0  0  0  0  0  0  0  0  0  0  0  0
    5.2378    8.8253   26.2943 H    0  0  0  0  0  0  0  0  0  0  0  0
    6.9710    8.5291   24.5889 H    0  0  0  0  0  0  0  0  0  0  0  0
  8  9  1  0  0  0  0
  6  8  1  0  0  0  0
  5  6  1  0  0  0  0
  4  5  1  0  0  0  0
  3  4  1  0  0  0  0
  2  3  1  0  0  0  0
  1  2  1  0  0  0  0
 20  2  1  0  0  0  0
 21  2  1  0  0  0  0
 22  3  1  0  0  0  0
 23  4  1  0  0  0  0
 24  4  1  0  0  0  0
 25  5  1  0  0  0  0
 26  5  1  0  0  0  0
 27  6  1  0  0  0  0
 28  6  1  0  0  0  0
  7  3  1  0  0  0  0
 29  7  1  0  0  0  0
 30  7  1  0  0  0  0
 10  9  2  0  0  0  0
 11  9  1  0  0  0  0
 31 11  1  0  0  0  0
 32 11  1  0  0  0  0
 12 11  1  0  0  0  0
 13 12  1  0  0  0  0
 19 13  2  0  0  0  0
 14 13  1  0  0  0  0
 15 14  1  0  0  0  0
 33 15  1  0  0  0  0
 34 15  1  0  0  0  0
 35 15  1  0  0  0  0
 16 12  2  0  0  0  0
 36 16  1  0  0  0  0
 17 16  1  0  0  0  0
 37 17  1  0  0  0  0
 18 17  2  0  0  0  0
 38 18  1  0  0  0  0
 39 19  1  0  0  0  0
  8  7  1  0  0  0  0
 19 18  1  0  0  0  0
M  END
>  <FittedScore>
-26.75

$$$$
