A71EV2A-x4751a_lowest-energy
  FITTED

 39 40     0  0  0  0  0  0  0999 V2000
    9.5379   17.1183   19.7428 F    0  0  0  0  0  0  0  0  0  0  0  0
    9.6206   15.7751   19.6107 C    0  0  0  0  0  0  0  0  0  0  0  0
    9.9351   15.0622   20.9548 C    0  0  0  0  0  0  0  0  0  0  0  0
   11.3835   15.3620   21.4567 C    0  0  0  0  0  0  0  0  0  0  0  0
   11.6509   14.7774   22.8714 C    0  0  0  0  0  0  0  0  0  0  0  0
   10.5036   15.0778   23.8660 C    0  0  0  0  0  0  0  0  0  0  0  0
    8.8718   15.3739   22.0546 C    0  0  0  0  0  0  0  0  0  0  0  0
    9.1704   14.6488   23.3281 N    0  0  0  0  0  0  0  0  0  0  0  0
    8.3711   13.6371   23.8123 C    0  0  0  0  0  0  0  0  0  0  0  0
    7.4077   13.2309   23.1800 O    0  0  0  0  0  0  0  0  0  0  0  0
    8.7793   12.9317   25.1178 C    0  0  0  0  0  0  0  0  0  0  0  0
    7.8693   11.7484   25.4874 C    0  0  0  0  0  0  0  0  0  0  0  0
    7.9302   10.5092   24.8091 C    0  0  0  0  0  0  0  0  0  0  0  0
    9.2207   10.2220   23.6118 S    0  0  0  0  0  0  0  0  0  0  0  0
    9.3910    8.4257   23.4755 C    0  0  0  0  0  0  0  0  0  0  0  0
    6.8601   11.9556   26.4482 C    0  0  0  0  0  0  0  0  0  0  0  0
    5.9104   10.9626   26.7202 C    0  0  0  0  0  0  0  0  0  0  0  0
    5.9445    9.7553   26.0129 C    0  0  0  0  0  0  0  0  0  0  0  0
    6.9425    9.5336   25.0579 C    0  0  0  0  0  0  0  0  0  0  0  0
    8.6769   15.4056   19.2017 H    0  0  0  0  0  0  0  0  0  0  0  0
   10.4039   15.5738   18.8739 H    0  0  0  0  0  0  0  0  0  0  0  0
    9.8816   13.9857   20.7613 H    0  0  0  0  0  0  0  0  0  0  0  0
   12.1113   14.9364   20.7583 H    0  0  0  0  0  0  0  0  0  0  0  0
   11.5603   16.4416   21.4691 H    0  0  0  0  0  0  0  0  0  0  0  0
   11.7887   13.6918   22.7972 H    0  0  0  0  0  0  0  0  0  0  0  0
   12.5885   15.1906   23.2588 H    0  0  0  0  0  0  0  0  0  0  0  0
   10.7562   14.6380   24.8323 H    0  0  0  0  0  0  0  0  0  0  0  0
   10.4793   16.1518   24.0708 H    0  0  0  0  0  0  0  0  0  0  0  0
    7.8751   15.1550   21.6639 H    0  0  0  0  0  0  0  0  0  0  0  0
    8.8564   16.4444   22.2728 H    0  0  0  0  0  0  0  0  0  0  0  0
    9.8126   12.5852   25.0475 H    0  0  0  0  0  0  0  0  0  0  0  0
    8.7746   13.6577   25.9347 H    0  0  0  0  0  0  0  0  0  0  0  0
    9.6480    7.9810   24.4387 H    0  0  0  0  0  0  0  0  0  0  0  0
   10.2050    8.2108   22.7823 H    0  0  0  0  0  0  0  0  0  0  0  0
    8.4660    7.9969   23.0862 H    0  0  0  0  0  0  0  0  0  0  0  0
    6.7935   12.9040   26.9774 H    0  0  0  0  0  0  0  0  0  0  0  0
    5.1425   11.1405   27.4729 H    0  0  0  0  0  0  0  0  0  0  0  0
    5.2045    8.9860   26.2143 H    0  0  0  0  0  0  0  0  0  0  0  0
    6.9393    8.5957   24.5103 H    0  0  0  0  0  0  0  0  0  0  0  0
  8  9  1  0  0  0  0
  6  8  1  0  0  0  0
  5  6  1  0  0  0  0
  4  5  1  0  0  0  0
  3  4  1  0  0  0  0
  2  3  1  0  0  0  0
  1  2  1  0  0  0  0
 20  2  1  0  0  0  0
 21  2  1  0  0  0  0
 22  3  1  0  0  0  0
 23  4  1  0  0  0  0
 24  4  1  0  0  0  0
 25  5  1  0  0  0  0
 26  5  1  0  0  0  0
 27  6  1  0  0  0  0
 28  6  1  0  0  0  0
  7  3  1  0  0  0  0
 29  7  1  0  0  0  0
 30  7  1  0  0  0  0
 10  9  2  0  0  0  0
 11  9  1  0  0  0  0
 31 11  1  0  0  0  0
 32 11  1  0  0  0  0
 12 11  1  0  0  0  0
 13 12  1  0  0  0  0
 19 13  2  0  0  0  0
 14 13  1  0  0  0  0
 15 14  1  0  0  0  0
 33 15  1  0  0  0  0
 34 15  1  0  0  0  0
 35 15  1  0  0  0  0
 16 12  2  0  0  0  0
 36 16  1  0  0  0  0
 17 16  1  0  0  0  0
 37 17  1  0  0  0  0
 18 17  2  0  0  0  0
 38 18  1  0  0  0  0
 39 19  1  0  0  0  0
  8  7  1  0  0  0  0
 19 18  1  0  0  0  0
M  END
>  <FittedScore>
-26.62

$$$$
