A71EV2A-x4812a_best-RMSD
  FITTED

 38 39     0  0  0  0  0  0  0999 V2000
    9.9726   16.8214   19.2976 O    0  0  0  0  0  0  0  0  0  0  0  0
   10.3984   15.7326   19.6400 C    0  0  0  0  0  0  0  0  0  0  0  0
   10.7535   14.8319   18.7048 N    0  0  0  0  0  0  0  0  0  0  0  0
   10.3973   15.2270   21.0853 C    0  0  0  0  0  0  0  0  0  0  0  0
   11.2874   16.1225   21.9994 C    0  0  0  0  0  0  0  0  0  0  0  0
   11.1624   15.7136   23.4891 C    0  0  0  0  0  0  0  0  0  0  0  0
    9.6763   15.6082   23.9215 C    0  0  0  0  0  0  0  0  0  0  0  0
    8.9410   15.0520   21.6380 C    0  0  0  0  0  0  0  0  0  0  0  0
    8.8819   14.6424   23.0818 N    0  0  0  0  0  0  0  0  0  0  0  0
    8.0852   13.6081   23.5510 C    0  0  0  0  0  0  0  0  0  0  0  0
    7.2858   13.0364   22.8215 O    0  0  0  0  0  0  0  0  0  0  0  0
    8.2193   13.1927   25.0293 C    0  0  0  0  0  0  0  0  0  0  0  0
    7.4602   11.9283   25.4361 C    0  0  0  0  0  0  0  0  0  0  0  0
    7.8491   10.6305   25.0062 C    0  0  0  0  0  0  0  0  0  0  0  0
    9.3174   10.3837   23.9910 S    0  0  0  0  0  0  0  0  0  0  0  0
    9.6257    8.5946   23.8660 C    0  0  0  0  0  0  0  0  0  0  0  0
    6.3757   12.1075   26.2519 N    0  0  0  0  0  0  0  0  0  0  0  0
    5.6598   11.0085   26.6169 C    0  0  0  0  0  0  0  0  0  0  0  0
    5.9455    9.7374   26.2222 N    0  0  0  0  0  0  0  0  0  0  0  0
    7.0266    9.5585   25.4128 C    0  0  0  0  0  0  0  0  0  0  0  0
   10.7263   15.0843   17.7246 H    0  0  0  0  0  0  0  0  0  0  0  0
   10.9410   13.8682   18.9602 H    0  0  0  0  0  0  0  0  0  0  0  0
   10.8513   14.2278   21.1128 H    0  0  0  0  0  0  0  0  0  0  0  0
   12.3326   16.0309   21.6905 H    0  0  0  0  0  0  0  0  0  0  0  0
   11.0153   17.1775   21.8893 H    0  0  0  0  0  0  0  0  0  0  0  0
   11.6557   14.7499   23.6529 H    0  0  0  0  0  0  0  0  0  0  0  0
   11.6797   16.4459   24.1143 H    0  0  0  0  0  0  0  0  0  0  0  0
    9.6702   15.3792   24.9853 H    0  0  0  0  0  0  0  0  0  0  0  0
    9.2094   16.5963   23.8562 H    0  0  0  0  0  0  0  0  0  0  0  0
    8.4404   14.3242   20.9930 H    0  0  0  0  0  0  0  0  0  0  0  0
    8.3791   15.9834   21.5174 H    0  0  0  0  0  0  0  0  0  0  0  0
    9.2704   13.0472   25.2919 H    0  0  0  0  0  0  0  0  0  0  0  0
    7.8717   14.0264   25.6487 H    0  0  0  0  0  0  0  0  0  0  0  0
    8.8201    8.1111   23.3117 H    0  0  0  0  0  0  0  0  0  0  0  0
    9.7054    8.1642   24.8659 H    0  0  0  0  0  0  0  0  0  0  0  0
   10.5636    8.4258   23.3356 H    0  0  0  0  0  0  0  0  0  0  0  0
    4.7995   11.1577   27.2653 H    0  0  0  0  0  0  0  0  0  0  0  0
    7.2400    8.5457   25.0974 H    0  0  0  0  0  0  0  0  0  0  0  0
  9 10  1  0  0  0  0
  7  9  1  0  0  0  0
  6  7  1  0  0  0  0
  5  6  1  0  0  0  0
  4  5  1  0  0  0  0
  2  4  1  0  0  0  0
  1  2  2  0  0  0  0
  3  2  1  0  0  0  0
 21  3  1  0  0  0  0
 22  3  1  0  0  0  0
 23  4  1  0  0  0  0
 24  5  1  0  0  0  0
 25  5  1  0  0  0  0
 26  6  1  0  0  0  0
 27  6  1  0  0  0  0
 28  7  1  0  0  0  0
 29  7  1  0  0  0  0
  8  4  1  0  0  0  0
 30  8  1  0  0  0  0
 31  8  1  0  0  0  0
 11 10  2  0  0  0  0
 12 10  1  0  0  0  0
 32 12  1  0  0  0  0
 33 12  1  0  0  0  0
 13 12  1  0  0  0  0
 14 13  1  0  0  0  0
 20 14  2  0  0  0  0
 15 14  1  0  0  0  0
 16 15  1  0  0  0  0
 34 16  1  0  0  0  0
 35 16  1  0  0  0  0
 36 16  1  0  0  0  0
 17 13  2  0  0  0  0
 18 17  1  0  0  0  0
 37 18  1  0  0  0  0
 19 18  2  0  0  0  0
 38 20  1  0  0  0  0
  9  8  1  0  0  0  0
 20 19  1  0  0  0  0
M  END
>  <FittedScore>
-27.32

$$$$
