A71EV2A-x4812a_lowest-energy
  FITTED

 38 39     0  0  0  0  0  0  0999 V2000
   10.0016   16.8485   19.2478 O    0  0  0  0  0  0  0  0  0  0  0  0
   10.5021   15.8000   19.6058 C    0  0  0  0  0  0  0  0  0  0  0  0
   10.8131   14.8485   18.7109 N    0  0  0  0  0  0  0  0  0  0  0  0
   10.6052   15.3559   21.0664 C    0  0  0  0  0  0  0  0  0  0  0  0
   11.4459   16.3507   21.9107 C    0  0  0  0  0  0  0  0  0  0  0  0
   11.5013   15.8809   23.3868 C    0  0  0  0  0  0  0  0  0  0  0  0
   10.0848   15.5967   23.9619 C    0  0  0  0  0  0  0  0  0  0  0  0
    9.1976   15.1065   21.6976 C    0  0  0  0  0  0  0  0  0  0  0  0
    9.2399   14.6589   23.1338 N    0  0  0  0  0  0  0  0  0  0  0  0
    8.4330   13.6447   23.6221 C    0  0  0  0  0  0  0  0  0  0  0  0
    7.6182   13.0802   22.9071 O    0  0  0  0  0  0  0  0  0  0  0  0
    8.5143   13.2729   25.1167 C    0  0  0  0  0  0  0  0  0  0  0  0
    7.6364   12.0911   25.5552 C    0  0  0  0  0  0  0  0  0  0  0  0
    7.9550   10.7429   25.2419 C    0  0  0  0  0  0  0  0  0  0  0  0
    9.4599   10.3304   24.3509 S    0  0  0  0  0  0  0  0  0  0  0  0
    9.3545    8.5956   23.8263 C    0  0  0  0  0  0  0  0  0  0  0  0
    6.5137   12.3971   26.2717 N    0  0  0  0  0  0  0  0  0  0  0  0
    5.7011   11.3753   26.6624 C    0  0  0  0  0  0  0  0  0  0  0  0
    5.9237   10.0631   26.3815 N    0  0  0  0  0  0  0  0  0  0  0  0
    7.0395    9.7562   25.6681 C    0  0  0  0  0  0  0  0  0  0  0  0
   10.7409   15.0429   17.7192 H    0  0  0  0  0  0  0  0  0  0  0  0
   10.9831   13.8944   19.0192 H    0  0  0  0  0  0  0  0  0  0  0  0
   11.1392   14.3954   21.1130 H    0  0  0  0  0  0  0  0  0  0  0  0
   12.4615   16.4095   21.5106 H    0  0  0  0  0  0  0  0  0  0  0  0
   11.0350   17.3646   21.8588 H    0  0  0  0  0  0  0  0  0  0  0  0
   12.1149   14.9778   23.4648 H    0  0  0  0  0  0  0  0  0  0  0  0
   11.9948   16.6499   23.9871 H    0  0  0  0  0  0  0  0  0  0  0  0
   10.2434   15.2393   24.9779 H    0  0  0  0  0  0  0  0  0  0  0  0
    9.5448   16.5420   24.0692 H    0  0  0  0  0  0  0  0  0  0  0  0
    8.6954   14.3673   21.0666 H    0  0  0  0  0  0  0  0  0  0  0  0
    8.5818   16.0097   21.6326 H    0  0  0  0  0  0  0  0  0  0  0  0
    9.5512   13.0505   25.3854 H    0  0  0  0  0  0  0  0  0  0  0  0
    8.2405   14.1536   25.7093 H    0  0  0  0  0  0  0  0  0  0  0  0
   10.2362    8.3296   23.2419 H    0  0  0  0  0  0  0  0  0  0  0  0
    8.4682    8.4437   23.2075 H    0  0  0  0  0  0  0  0  0  0  0  0
    9.3164    7.9513   24.7072 H    0  0  0  0  0  0  0  0  0  0  0  0
    4.8221   11.6248   27.2528 H    0  0  0  0  0  0  0  0  0  0  0  0
    7.2074    8.7109   25.4448 H    0  0  0  0  0  0  0  0  0  0  0  0
  9 10  1  0  0  0  0
  7  9  1  0  0  0  0
  6  7  1  0  0  0  0
  5  6  1  0  0  0  0
  4  5  1  0  0  0  0
  2  4  1  0  0  0  0
  1  2  2  0  0  0  0
  3  2  1  0  0  0  0
 21  3  1  0  0  0  0
 22  3  1  0  0  0  0
 23  4  1  0  0  0  0
 24  5  1  0  0  0  0
 25  5  1  0  0  0  0
 26  6  1  0  0  0  0
 27  6  1  0  0  0  0
 28  7  1  0  0  0  0
 29  7  1  0  0  0  0
  8  4  1  0  0  0  0
 30  8  1  0  0  0  0
 31  8  1  0  0  0  0
 11 10  2  0  0  0  0
 12 10  1  0  0  0  0
 32 12  1  0  0  0  0
 33 12  1  0  0  0  0
 13 12  1  0  0  0  0
 14 13  1  0  0  0  0
 20 14  2  0  0  0  0
 15 14  1  0  0  0  0
 16 15  1  0  0  0  0
 34 16  1  0  0  0  0
 35 16  1  0  0  0  0
 36 16  1  0  0  0  0
 17 13  2  0  0  0  0
 18 17  1  0  0  0  0
 37 18  1  0  0  0  0
 19 18  2  0  0  0  0
 38 20  1  0  0  0  0
  9  8  1  0  0  0  0
 20 19  1  0  0  0  0
M  END
>  <FittedScore>
-27.14

$$$$
