A71EV2A-x4429a_best-RMSD
  FITTED

 42 43     0  0  0  0  0  0  0999 V2000
   10.1260   16.7815   19.6016 O    0  0  0  0  0  0  0  0  0  0  0  0
   10.5612   15.6835   19.8839 C    0  0  0  0  0  0  0  0  0  0  0  0
   10.9754   14.8602   18.9020 N    0  0  0  0  0  0  0  0  0  0  0  0
   10.5032   15.0792   21.2944 C    0  0  0  0  0  0  0  0  0  0  0  0
   11.5169   15.7675   22.2579 C    0  0  0  0  0  0  0  0  0  0  0  0
   11.3760   15.2363   23.7193 C    0  0  0  0  0  0  0  0  0  0  0  0
    9.8945   15.2610   24.1960 C    0  0  0  0  0  0  0  0  0  0  0  0
    9.0544   15.0686   21.8944 C    0  0  0  0  0  0  0  0  0  0  0  0
    8.9972   14.4819   23.2759 N    0  0  0  0  0  0  0  0  0  0  0  0
    8.2316   13.3840   23.5888 C    0  0  0  0  0  0  0  0  0  0  0  0
    7.5102   12.8491   22.7692 O    0  0  0  0  0  0  0  0  0  0  0  0
    8.1298   13.0251   24.9030 N    0  0  0  0  0  0  0  0  0  0  0  0
    7.4090   11.8941   25.4318 C    0  0  0  0  0  0  0  0  0  0  0  0
    7.7276   10.5715   25.0435 C    0  0  0  0  0  0  0  0  0  0  0  0
    8.8346   10.3629   24.2163 O    0  0  0  0  0  0  0  0  0  0  0  0
    9.1823    9.1663   23.4711 C    0  0  0  0  0  0  0  0  0  0  0  0
    6.3642   12.1271   26.3455 C    0  0  0  0  0  0  0  0  0  0  0  0
    5.5874   11.0656   26.8577 C    0  0  0  0  0  0  0  0  0  0  0  0
    4.4628   11.3373   27.8865 C    0  0  0  0  0  0  0  0  0  0  0  0
    3.8851   12.5517   27.6987 F    0  0  0  0  0  0  0  0  0  0  0  0
    3.4562   10.4290   27.8924 F    0  0  0  0  0  0  0  0  0  0  0  0
    4.9891   11.3507   29.1287 F    0  0  0  0  0  0  0  0  0  0  0  0
    5.9098    9.7578   26.4530 C    0  0  0  0  0  0  0  0  0  0  0  0
    6.9471    9.5150   25.5360 C    0  0  0  0  0  0  0  0  0  0  0  0
   11.1998   13.8948   19.1183 H    0  0  0  0  0  0  0  0  0  0  0  0
   10.9333   15.1335   17.9239 H    0  0  0  0  0  0  0  0  0  0  0  0
   10.7922   14.0220   21.2398 H    0  0  0  0  0  0  0  0  0  0  0  0
   12.5334   15.5640   21.9054 H    0  0  0  0  0  0  0  0  0  0  0  0
   11.3786   16.8546   22.2390 H    0  0  0  0  0  0  0  0  0  0  0  0
   11.7586   14.2097   23.7856 H    0  0  0  0  0  0  0  0  0  0  0  0
   11.9975   15.8412   24.3888 H    0  0  0  0  0  0  0  0  0  0  0  0
    9.8691   14.9142   25.2347 H    0  0  0  0  0  0  0  0  0  0  0  0
    9.5537   16.3023   24.2389 H    0  0  0  0  0  0  0  0  0  0  0  0
    8.4186   14.5232   21.1941 H    0  0  0  0  0  0  0  0  0  0  0  0
    8.6463   16.0866   21.9194 H    0  0  0  0  0  0  0  0  0  0  0  0
    8.3576   13.7249   25.6051 H    0  0  0  0  0  0  0  0  0  0  0  0
    9.4731    8.3447   24.1332 H    0  0  0  0  0  0  0  0  0  0  0  0
   10.0481    9.4179   22.8553 H    0  0  0  0  0  0  0  0  0  0  0  0
    8.3682    8.8332   22.8139 H    0  0  0  0  0  0  0  0  0  0  0  0
    6.1510   13.1481   26.6517 H    0  0  0  0  0  0  0  0  0  0  0  0
    5.3716    8.9058   26.8713 H    0  0  0  0  0  0  0  0  0  0  0  0
    7.1494    8.4930   25.2437 H    0  0  0  0  0  0  0  0  0  0  0  0
  9 10  1  0  0  0  0
  7  9  1  0  0  0  0
  6  7  1  0  0  0  0
  5  6  1  0  0  0  0
  4  5  1  0  0  0  0
  2  4  1  0  0  0  0
  1  2  2  0  0  0  0
  3  2  1  0  0  0  0
 25  3  1  0  0  0  0
 26  3  1  0  0  0  0
 27  4  1  0  0  0  0
 28  5  1  0  0  0  0
 29  5  1  0  0  0  0
 30  6  1  0  0  0  0
 31  6  1  0  0  0  0
 32  7  1  0  0  0  0
 33  7  1  0  0  0  0
  8  4  1  0  0  0  0
 34  8  1  0  0  0  0
 35  8  1  0  0  0  0
 11 10  2  0  0  0  0
 12 10  1  0  0  0  0
 36 12  1  0  0  0  0
 13 12  1  0  0  0  0
 14 13  1  0  0  0  0
 24 14  2  0  0  0  0
 15 14  1  0  0  0  0
 16 15  1  0  0  0  0
 37 16  1  0  0  0  0
 38 16  1  0  0  0  0
 39 16  1  0  0  0  0
 17 13  2  0  0  0  0
 40 17  1  0  0  0  0
 18 17  1  0  0  0  0
 19 18  1  0  0  0  0
 20 19  1  0  0  0  0
 21 19  1  0  0  0  0
 22 19  1  0  0  0  0
 23 18  2  0  0  0  0
 41 23  1  0  0  0  0
 42 24  1  0  0  0  0
  9  8  1  0  0  0  0
 24 23  1  0  0  0  0
M  END
>  <FittedScore>
-30.36

$$$$
