A71EV2A-x4429a_lowest-energy
  FITTED

 42 43     0  0  0  0  0  0  0999 V2000
    9.7391   16.7521   19.3159 O    0  0  0  0  0  0  0  0  0  0  0  0
   10.3373   15.7625   19.6903 C    0  0  0  0  0  0  0  0  0  0  0  0
   10.8561   14.9126   18.7918 N    0  0  0  0  0  0  0  0  0  0  0  0
   10.3687   15.2694   21.1358 C    0  0  0  0  0  0  0  0  0  0  0  0
   11.3042   16.1421   22.0166 C    0  0  0  0  0  0  0  0  0  0  0  0
   11.3227   15.6001   23.4733 C    0  0  0  0  0  0  0  0  0  0  0  0
    9.8947   15.3792   24.0538 C    0  0  0  0  0  0  0  0  0  0  0  0
    8.9517   15.1915   21.7708 C    0  0  0  0  0  0  0  0  0  0  0  0
    8.9868   14.5948   23.1438 N    0  0  0  0  0  0  0  0  0  0  0  0
    8.2664   13.4673   23.4665 C    0  0  0  0  0  0  0  0  0  0  0  0
    7.5375   12.8953   22.6726 O    0  0  0  0  0  0  0  0  0  0  0  0
    8.2447   13.0846   24.7713 N    0  0  0  0  0  0  0  0  0  0  0  0
    7.6133   11.9018   25.2828 C    0  0  0  0  0  0  0  0  0  0  0  0
    7.9088   10.6130   24.7853 C    0  0  0  0  0  0  0  0  0  0  0  0
    8.9675   10.4658   23.8915 O    0  0  0  0  0  0  0  0  0  0  0  0
    9.4808    9.2162   23.3690 C    0  0  0  0  0  0  0  0  0  0  0  0
    6.6333   12.0605   26.2699 C    0  0  0  0  0  0  0  0  0  0  0  0
    5.9027   10.9617   26.7580 C    0  0  0  0  0  0  0  0  0  0  0  0
    4.8320   11.1891   27.8316 C    0  0  0  0  0  0  0  0  0  0  0  0
    4.2685   10.0545   28.2936 F    0  0  0  0  0  0  0  0  0  0  0  0
    5.3224   11.8391   28.9016 F    0  0  0  0  0  0  0  0  0  0  0  0
    3.8393   11.9538   27.3413 F    0  0  0  0  0  0  0  0  0  0  0  0
    6.1467    9.6946   26.1928 C    0  0  0  0  0  0  0  0  0  0  0  0
    7.1391    9.5218   25.2217 C    0  0  0  0  0  0  0  0  0  0  0  0
   11.1219   13.9723   19.0760 H    0  0  0  0  0  0  0  0  0  0  0  0
   10.7877   15.1207   17.8035 H    0  0  0  0  0  0  0  0  0  0  0  0
   10.7699   14.2435   21.1599 H    0  0  0  0  0  0  0  0  0  0  0  0
   12.3177   16.1163   21.6104 H    0  0  0  0  0  0  0  0  0  0  0  0
   10.9810   17.1893   22.0069 H    0  0  0  0  0  0  0  0  0  0  0  0
   11.8803   14.6597   23.5027 H    0  0  0  0  0  0  0  0  0  0  0  0
   11.8687   16.3001   24.1086 H    0  0  0  0  0  0  0  0  0  0  0  0
   10.0123   14.9188   25.0385 H    0  0  0  0  0  0  0  0  0  0  0  0
    9.4294   16.3504   24.2442 H    0  0  0  0  0  0  0  0  0  0  0  0
    8.3095   14.6341   21.0838 H    0  0  0  0  0  0  0  0  0  0  0  0
    8.4936   16.1861   21.8358 H    0  0  0  0  0  0  0  0  0  0  0  0
    8.4053   13.7935   25.4835 H    0  0  0  0  0  0  0  0  0  0  0  0
    9.9321    8.6038   24.1559 H    0  0  0  0  0  0  0  0  0  0  0  0
   10.2603    9.4567   22.6419 H    0  0  0  0  0  0  0  0  0  0  0  0
    8.7062    8.6528   22.8465 H    0  0  0  0  0  0  0  0  0  0  0  0
    6.4155   13.0564   26.6509 H    0  0  0  0  0  0  0  0  0  0  0  0
    5.5754    8.8238   26.5066 H    0  0  0  0  0  0  0  0  0  0  0  0
    7.3110    8.5215   24.8308 H    0  0  0  0  0  0  0  0  0  0  0  0
  9 10  1  0  0  0  0
  7  9  1  0  0  0  0
  6  7  1  0  0  0  0
  5  6  1  0  0  0  0
  4  5  1  0  0  0  0
  2  4  1  0  0  0  0
  1  2  2  0  0  0  0
  3  2  1  0  0  0  0
 25  3  1  0  0  0  0
 26  3  1  0  0  0  0
 27  4  1  0  0  0  0
 28  5  1  0  0  0  0
 29  5  1  0  0  0  0
 30  6  1  0  0  0  0
 31  6  1  0  0  0  0
 32  7  1  0  0  0  0
 33  7  1  0  0  0  0
  8  4  1  0  0  0  0
 34  8  1  0  0  0  0
 35  8  1  0  0  0  0
 11 10  2  0  0  0  0
 12 10  1  0  0  0  0
 36 12  1  0  0  0  0
 13 12  1  0  0  0  0
 14 13  1  0  0  0  0
 24 14  2  0  0  0  0
 15 14  1  0  0  0  0
 16 15  1  0  0  0  0
 37 16  1  0  0  0  0
 38 16  1  0  0  0  0
 39 16  1  0  0  0  0
 17 13  2  0  0  0  0
 40 17  1  0  0  0  0
 18 17  1  0  0  0  0
 19 18  1  0  0  0  0
 20 19  1  0  0  0  0
 21 19  1  0  0  0  0
 22 19  1  0  0  0  0
 23 18  2  0  0  0  0
 41 23  1  0  0  0  0
 42 24  1  0  0  0  0
  9  8  1  0  0  0  0
 24 23  1  0  0  0  0
M  END
>  <FittedScore>
-32.94

$$$$
