A71EV2A-x6920a_lowest-energy
  FITTED

 50 52     0  0  0  0  0  0  0999 V2000
    9.4330    8.5303   23.3763 C    0  0  0  0  0  0  0  0  0  0  0  0
    9.4521   10.2410   23.9823 S    0  0  0  0  0  0  0  0  0  0  0  0
    7.9711   10.4479   24.9798 C    0  0  0  0  0  0  0  0  0  0  0  0
    7.2659    9.3311   25.3200 N    0  0  0  0  0  0  0  0  0  0  0  0
    6.1529    9.4825   26.0859 C    0  0  0  0  0  0  0  0  0  0  0  0
    5.6545   10.6745   26.4922 N    0  0  0  0  0  0  0  0  0  0  0  0
    6.3079   11.8140   26.1218 C    0  0  0  0  0  0  0  0  0  0  0  0
    5.7213   13.0200   26.4766 N    0  0  0  0  0  0  0  0  0  0  0  0
    5.2935   14.1017   25.5387 C    0  0  0  0  0  0  0  0  0  0  0  0
    3.8796   14.4079   26.1317 C    0  0  0  0  0  0  0  0  0  0  0  0
    2.6797   14.0355   25.2392 C    0  0  0  0  0  0  0  0  0  0  0  0
    4.3933   13.2972   27.1118 C    0  0  0  0  0  0  0  0  0  0  0  0
    7.5380   11.7402   25.3965 C    0  0  0  0  0  0  0  0  0  0  0  0
    8.3721   12.9955   25.0458 C    0  0  0  0  0  0  0  0  0  0  0  0
    8.1591   13.5206   23.6138 C    0  0  0  0  0  0  0  0  0  0  0  0
    7.3786   12.9443   22.8726 O    0  0  0  0  0  0  0  0  0  0  0  0
    8.8679   14.6251   23.1776 N    0  0  0  0  0  0  0  0  0  0  0  0
    9.7929   15.4861   24.0034 C    0  0  0  0  0  0  0  0  0  0  0  0
   11.2110   15.6662   23.3859 C    0  0  0  0  0  0  0  0  0  0  0  0
   11.1548   16.1292   21.9045 C    0  0  0  0  0  0  0  0  0  0  0  0
   10.1973   15.2072   21.1012 C    0  0  0  0  0  0  0  0  0  0  0  0
   10.1462   15.5988   19.6277 C    0  0  0  0  0  0  0  0  0  0  0  0
   10.7805   14.7545   18.7986 N    0  0  0  0  0  0  0  0  0  0  0  0
    9.4822   16.5111   19.1745 O    0  0  0  0  0  0  0  0  0  0  0  0
    8.7903   15.1484   21.7734 C    0  0  0  0  0  0  0  0  0  0  0  0
   10.3019    8.3524   22.7398 H    0  0  0  0  0  0  0  0  0  0  0  0
    8.5288    8.3607   22.7852 H    0  0  0  0  0  0  0  0  0  0  0  0
    9.4623    7.8358   24.2188 H    0  0  0  0  0  0  0  0  0  0  0  0
    5.6175    8.5847   26.3791 H    0  0  0  0  0  0  0  0  0  0  0  0
    5.2803   13.7735   24.4921 H    0  0  0  0  0  0  0  0  0  0  0  0
    5.9709   14.9624   25.5713 H    0  0  0  0  0  0  0  0  0  0  0  0
    3.7680   15.4055   26.5701 H    0  0  0  0  0  0  0  0  0  0  0  0
    2.7428   13.0083   24.8704 H    0  0  0  0  0  0  0  0  0  0  0  0
    2.6327   14.7051   24.3773 H    0  0  0  0  0  0  0  0  0  0  0  0
    1.7456   14.1508   25.7939 H    0  0  0  0  0  0  0  0  0  0  0  0
    3.7311   12.4268   27.1811 H    0  0  0  0  0  0  0  0  0  0  0  0
    4.5105   13.6511   28.1435 H    0  0  0  0  0  0  0  0  0  0  0  0
    9.4314   12.7809   25.2074 H    0  0  0  0  0  0  0  0  0  0  0  0
    8.1676   13.7894   25.7659 H    0  0  0  0  0  0  0  0  0  0  0  0
    9.9404   15.1192   25.0175 H    0  0  0  0  0  0  0  0  0  0  0  0
    9.3342   16.4718   24.1257 H    0  0  0  0  0  0  0  0  0  0  0  0
   11.7617   14.7216   23.4487 H    0  0  0  0  0  0  0  0  0  0  0  0
   11.7751   16.3971   23.9720 H    0  0  0  0  0  0  0  0  0  0  0  0
   12.1587   16.0871   21.4755 H    0  0  0  0  0  0  0  0  0  0  0  0
   10.8267   17.1725   21.8479 H    0  0  0  0  0  0  0  0  0  0  0  0
   10.6064   14.1903   21.1751 H    0  0  0  0  0  0  0  0  0  0  0  0
   10.7449   14.9145   17.8020 H    0  0  0  0  0  0  0  0  0  0  0  0
   11.1051   13.8523   19.1510 H    0  0  0  0  0  0  0  0  0  0  0  0
    8.1373   14.5481   21.1341 H    0  0  0  0  0  0  0  0  0  0  0  0
    8.3270   16.1412   21.7898 H    0  0  0  0  0  0  0  0  0  0  0  0
 14 15  1  0  0  0  0
 13 14  1  0  0  0  0
  7 13  2  0  0  0  0
  6  7  1  0  0  0  0
  5  6  2  0  0  0  0
  4  5  1  0  0  0  0
  3  4  2  0  0  0  0
  2  3  1  0  0  0  0
  1  2  1  0  0  0  0
 26  1  1  0  0  0  0
 27  1  1  0  0  0  0
 28  1  1  0  0  0  0
 29  5  1  0  0  0  0
  8  7  1  0  0  0  0
  9  8  1  0  0  0  0
 10  9  1  0  0  0  0
 30  9  1  0  0  0  0
 31  9  1  0  0  0  0
 11 10  1  0  0  0  0
 12 10  1  0  0  0  0
 32 10  1  0  0  0  0
 33 11  1  0  0  0  0
 34 11  1  0  0  0  0
 35 11  1  0  0  0  0
 36 12  1  0  0  0  0
 37 12  1  0  0  0  0
 38 14  1  0  0  0  0
 39 14  1  0  0  0  0
 16 15  2  0  0  0  0
 17 15  1  0  0  0  0
 18 17  1  0  0  0  0
 19 18  1  0  0  0  0
 40 18  1  0  0  0  0
 41 18  1  0  0  0  0
 20 19  1  0  0  0  0
 42 19  1  0  0  0  0
 43 19  1  0  0  0  0
 21 20  1  0  0  0  0
 44 20  1  0  0  0  0
 45 20  1  0  0  0  0
 22 21  1  0  0  0  0
 25 21  1  0  0  0  0
 46 21  1  0  0  0  0
 23 22  1  0  0  0  0
 24 22  2  0  0  0  0
 47 23  1  0  0  0  0
 48 23  1  0  0  0  0
 49 25  1  0  0  0  0
 50 25  1  0  0  0  0
 12  8  1  0  0  0  0
 13  3  1  0  0  0  0
 25 17  1  0  0  0  0
M  END
>  <FittedScore>
-34.45

$$$$
