A71EV2A-x4365a_best-RMSD
  FITTED

 42 44     0  0  0  0  0  0  0999 V2000
    7.4121   13.5672   22.9514 O    0  0  0  0  0  0  0  0  0  0  0  0
    8.3628   14.0091   23.5800 C    0  0  0  0  0  0  0  0  0  0  0  0
    8.9682   15.1890   23.2148 N    0  0  0  0  0  0  0  0  0  0  0  0
   10.0579   15.8998   23.9676 C    0  0  0  0  0  0  0  0  0  0  0  0
   11.4412   15.7313   23.2773 C    0  0  0  0  0  0  0  0  0  0  0  0
   11.3970   16.1323   21.7764 C    0  0  0  0  0  0  0  0  0  0  0  0
    8.8545   15.7449   21.8304 C    0  0  0  0  0  0  0  0  0  0  0  0
   10.1850   15.4646   21.0651 C    0  0  0  0  0  0  0  0  0  0  0  0
   10.1228   15.8730   19.6053 C    0  0  0  0  0  0  0  0  0  0  0  0
    9.7078   16.9465   19.2136 O    0  0  0  0  0  0  0  0  0  0  0  0
   10.4576   14.8936   18.7464 N    0  0  0  0  0  0  0  0  0  0  0  0
    9.0634   13.1283   24.6300 C    0  0  0  0  0  0  0  0  0  0  0  0
    8.4786   11.7196   24.7312 C    0  0  0  0  0  0  0  0  0  0  0  0
    7.3362   11.4607   25.5187 C    0  0  0  0  0  0  0  0  0  0  0  0
    6.7312   12.4726   26.2643 O    0  0  0  0  0  0  0  0  0  0  0  0
    5.3948   12.3076   26.8134 C    0  0  0  0  0  0  0  0  0  0  0  0
    5.2608   10.8686   27.3712 C    0  0  0  0  0  0  0  0  0  0  0  0
    5.6861    9.8950   26.3681 O    0  0  0  0  0  0  0  0  0  0  0  0
    6.7976   10.1569   25.5701 C    0  0  0  0  0  0  0  0  0  0  0  0
    7.3694    9.1373   24.8038 C    0  0  0  0  0  0  0  0  0  0  0  0
    8.4917    9.3896   24.0098 C    0  0  0  0  0  0  0  0  0  0  0  0
    9.0394   10.6767   23.9707 C    0  0  0  0  0  0  0  0  0  0  0  0
    9.8122   16.9646   24.0331 H    0  0  0  0  0  0  0  0  0  0  0  0
   10.1339   15.5816   25.0082 H    0  0  0  0  0  0  0  0  0  0  0  0
   12.1892   16.3402   23.7930 H    0  0  0  0  0  0  0  0  0  0  0  0
   11.7681   14.6897   23.3632 H    0  0  0  0  0  0  0  0  0  0  0  0
   11.3468   17.2237   21.6850 H    0  0  0  0  0  0  0  0  0  0  0  0
   12.3294   15.8156   21.2921 H    0  0  0  0  0  0  0  0  0  0  0  0
    8.6405   16.8194   21.8723 H    0  0  0  0  0  0  0  0  0  0  0  0
    8.0255   15.3068   21.2655 H    0  0  0  0  0  0  0  0  0  0  0  0
   10.3465   14.3790   21.1236 H    0  0  0  0  0  0  0  0  0  0  0  0
   10.6081   13.9387   19.0818 H    0  0  0  0  0  0  0  0  0  0  0  0
   10.5286   15.0899   17.7537 H    0  0  0  0  0  0  0  0  0  0  0  0
    9.0156   13.6064   25.6134 H    0  0  0  0  0  0  0  0  0  0  0  0
   10.1267   13.0470   24.3874 H    0  0  0  0  0  0  0  0  0  0  0  0
    4.6603   12.4911   26.0250 H    0  0  0  0  0  0  0  0  0  0  0  0
    5.2530   13.0513   27.5991 H    0  0  0  0  0  0  0  0  0  0  0  0
    4.2361   10.6515   27.6726 H    0  0  0  0  0  0  0  0  0  0  0  0
    5.9018   10.7532   28.2505 H    0  0  0  0  0  0  0  0  0  0  0  0
    6.9520    8.1317   24.8419 H    0  0  0  0  0  0  0  0  0  0  0  0
    8.9357    8.5927   23.4201 H    0  0  0  0  0  0  0  0  0  0  0  0
    9.9059   10.8573   23.3392 H    0  0  0  0  0  0  0  0  0  0  0  0
  2  1  2  0  0  0  0
  3  2  1  0  0  0  0
  4  3  1  0  0  0  0
 23  4  1  0  0  0  0
 24  4  1  0  0  0  0
  5  4  1  0  0  0  0
 25  5  1  0  0  0  0
 26  5  1  0  0  0  0
  6  5  1  0  0  0  0
 27  6  1  0  0  0  0
 28  6  1  0  0  0  0
  7  3  1  0  0  0  0
 29  7  1  0  0  0  0
 30  7  1  0  0  0  0
  8  6  1  0  0  0  0
  9  8  1  0  0  0  0
 31  8  1  0  0  0  0
 10  9  2  0  0  0  0
 11  9  1  0  0  0  0
 32 11  1  0  0  0  0
 33 11  1  0  0  0  0
 12  2  1  0  0  0  0
 34 12  1  0  0  0  0
 35 12  1  0  0  0  0
 13 12  1  0  0  0  0
 22 13  1  0  0  0  0
 14 13  2  0  0  0  0
 15 14  1  0  0  0  0
 16 15  1  0  0  0  0
 36 16  1  0  0  0  0
 37 16  1  0  0  0  0
 17 16  1  0  0  0  0
 38 17  1  0  0  0  0
 39 17  1  0  0  0  0
 18 17  1  0  0  0  0
 19 14  1  0  0  0  0
 20 19  2  0  0  0  0
 40 20  1  0  0  0  0
 21 20  1  0  0  0  0
 41 21  1  0  0  0  0
 42 22  1  0  0  0  0
  8  7  1  0  0  0  0
 19 18  1  0  0  0  0
 22 21  2  0  0  0  0
M  END
>  <FittedScore>
-32.98

$$$$
