A71EV2A-x6955a_lowest-energy
  FITTED

 53 55     0  0  0  0  0  0  0999 V2000
    9.0719    8.6098   23.3656 C    0  0  0  0  0  0  0  0  0  0  0  0
    9.1277   10.2813   24.0602 S    0  0  0  0  0  0  0  0  0  0  0  0
    7.6110   10.5483   24.9939 C    0  0  0  0  0  0  0  0  0  0  0  0
    6.8590    9.4521   25.4579 C    0  0  0  0  0  0  0  0  0  0  0  0
    5.7208    9.6336   26.2396 C    0  0  0  0  0  0  0  0  0  0  0  0
    5.2765   10.9180   26.5407 C    0  0  0  0  0  0  0  0  0  0  0  0
    5.9574   12.0461   26.0398 C    0  0  0  0  0  0  0  0  0  0  0  0
    5.4019   13.3214   26.2812 C    0  0  0  0  0  0  0  0  0  0  0  0
    5.2837   14.2901   25.3125 C    0  0  0  0  0  0  0  0  0  0  0  0
    5.0291   15.4781   25.9437 C    0  0  0  0  0  0  0  0  0  0  0  0
    5.2017   16.8273   25.2485 C    0  0  0  0  0  0  0  0  0  0  0  0
    4.4400   16.9314   24.1403 F    0  0  0  0  0  0  0  0  0  0  0  0
    4.9167   17.8600   26.0615 F    0  0  0  0  0  0  0  0  0  0  0  0
    6.4837   16.9643   24.8491 F    0  0  0  0  0  0  0  0  0  0  0  0
    4.8519   15.2513   27.4052 N    0  0  0  0  0  0  0  0  0  0  0  0
    5.0012   13.8900   27.4716 N    0  0  0  0  0  0  0  0  0  0  0  0
    5.1684   13.3180   28.8250 C    0  0  0  0  0  0  0  0  0  0  0  0
    7.1742   11.8701   25.2951 C    0  0  0  0  0  0  0  0  0  0  0  0
    8.1092   13.0747   24.9489 C    0  0  0  0  0  0  0  0  0  0  0  0
    8.0358   13.5918   23.4930 C    0  0  0  0  0  0  0  0  0  0  0  0
    7.2504   13.0810   22.7052 O    0  0  0  0  0  0  0  0  0  0  0  0
    8.8114   14.6791   23.1188 N    0  0  0  0  0  0  0  0  0  0  0  0
    9.6490   15.5416   24.0320 C    0  0  0  0  0  0  0  0  0  0  0  0
   11.1136   15.7093   23.5411 C    0  0  0  0  0  0  0  0  0  0  0  0
   11.1632   16.2515   22.0840 C    0  0  0  0  0  0  0  0  0  0  0  0
   10.2775   15.3747   21.1522 C    0  0  0  0  0  0  0  0  0  0  0  0
   10.3182   15.8348   19.6900 C    0  0  0  0  0  0  0  0  0  0  0  0
   10.5813   14.8563   18.8024 N    0  0  0  0  0  0  0  0  0  0  0  0
    9.9587   16.9302   19.3010 O    0  0  0  0  0  0  0  0  0  0  0  0
    8.8312   15.2256   21.7116 C    0  0  0  0  0  0  0  0  0  0  0  0
    9.9122    8.4796   22.6820 H    0  0  0  0  0  0  0  0  0  0  0  0
    8.1404    8.4594   22.8170 H    0  0  0  0  0  0  0  0  0  0  0  0
    9.1629    7.8766   24.1670 H    0  0  0  0  0  0  0  0  0  0  0  0
    7.1588    8.4315   25.2526 H    0  0  0  0  0  0  0  0  0  0  0  0
    5.1674    8.7716   26.5989 H    0  0  0  0  0  0  0  0  0  0  0  0
    4.3653   11.0226   27.1280 H    0  0  0  0  0  0  0  0  0  0  0  0
    5.4648   14.1705   24.2524 H    0  0  0  0  0  0  0  0  0  0  0  0
    6.0402   12.6617   28.8833 H    0  0  0  0  0  0  0  0  0  0  0  0
    4.2932   12.7307   29.1205 H    0  0  0  0  0  0  0  0  0  0  0  0
    5.3008   14.0717   29.6118 H    0  0  0  0  0  0  0  0  0  0  0  0
    9.1389   12.8244   25.2163 H    0  0  0  0  0  0  0  0  0  0  0  0
    7.9024   13.8995   25.6304 H    0  0  0  0  0  0  0  0  0  0  0  0
    9.7014   15.1628   25.0532 H    0  0  0  0  0  0  0  0  0  0  0  0
    9.1699   16.5244   24.1344 H    0  0  0  0  0  0  0  0  0  0  0  0
   11.6135   14.7379   23.5828 H    0  0  0  0  0  0  0  0  0  0  0  0
   11.6699   16.3702   24.2055 H    0  0  0  0  0  0  0  0  0  0  0  0
   12.2042   16.2301   21.7420 H    0  0  0  0  0  0  0  0  0  0  0  0
   10.8508   17.3034   22.0481 H    0  0  0  0  0  0  0  0  0  0  0  0
   10.7100   14.3708   21.1948 H    0  0  0  0  0  0  0  0  0  0  0  0
   10.5992   13.8976   19.1138 H    0  0  0  0  0  0  0  0  0  0  0  0
   10.6468   15.0457   17.8078 H    0  0  0  0  0  0  0  0  0  0  0  0
    8.2920   14.5838   21.0112 H    0  0  0  0  0  0  0  0  0  0  0  0
    8.3204   16.1909   21.6842 H    0  0  0  0  0  0  0  0  0  0  0  0
 19 20  1  0  0  0  0
 18 19  1  0  0  0  0
  7 18  2  0  0  0  0
  6  7  1  0  0  0  0
  5  6  2  0  0  0  0
  4  5  1  0  0  0  0
  3  4  2  0  0  0  0
  2  3  1  0  0  0  0
  1  2  1  0  0  0  0
 31  1  1  0  0  0  0
 32  1  1  0  0  0  0
 33  1  1  0  0  0  0
 34  4  1  0  0  0  0
 35  5  1  0  0  0  0
 36  6  1  0  0  0  0
  8  7  1  0  0  0  0
  9  8  2  0  0  0  0
 10  9  1  0  0  0  0
 37  9  1  0  0  0  0
 11 10  1  0  0  0  0
 15 10  2  0  0  0  0
 12 11  1  0  0  0  0
 13 11  1  0  0  0  0
 14 11  1  0  0  0  0
 16 15  1  0  0  0  0
 17 16  1  0  0  0  0
 38 17  1  0  0  0  0
 39 17  1  0  0  0  0
 40 17  1  0  0  0  0
 41 19  1  0  0  0  0
 42 19  1  0  0  0  0
 21 20  2  0  0  0  0
 22 20  1  0  0  0  0
 23 22  1  0  0  0  0
 24 23  1  0  0  0  0
 43 23  1  0  0  0  0
 44 23  1  0  0  0  0
 25 24  1  0  0  0  0
 45 24  1  0  0  0  0
 46 24  1  0  0  0  0
 26 25  1  0  0  0  0
 47 25  1  0  0  0  0
 48 25  1  0  0  0  0
 27 26  1  0  0  0  0
 30 26  1  0  0  0  0
 49 26  1  0  0  0  0
 28 27  1  0  0  0  0
 29 27  2  0  0  0  0
 50 28  1  0  0  0  0
 51 28  1  0  0  0  0
 52 30  1  0  0  0  0
 53 30  1  0  0  0  0
 16  8  1  0  0  0  0
 18  3  1  0  0  0  0
 30 22  1  0  0  0  0
M  END
>  <FittedScore>
-36.30

$$$$
