A71EV2A-x4431a_best-RMSD
  FITTED

 40 41     0  0  0  0  0  0  0999 V2000
   10.0762   16.7497   19.2192 O    0  0  0  0  0  0  0  0  0  0  0  0
   10.5004   15.6799   19.6125 C    0  0  0  0  0  0  0  0  0  0  0  0
   10.9103   14.7576   18.7259 N    0  0  0  0  0  0  0  0  0  0  0  0
   10.4973   15.2291   21.0762 C    0  0  0  0  0  0  0  0  0  0  0  0
   11.4020   16.1407   21.9562 C    0  0  0  0  0  0  0  0  0  0  0  0
   11.3558   15.6768   23.4350 C    0  0  0  0  0  0  0  0  0  0  0  0
    9.8976   15.5267   23.9444 C    0  0  0  0  0  0  0  0  0  0  0  0
    9.0543   15.0917   21.6675 C    0  0  0  0  0  0  0  0  0  0  0  0
    9.0478   14.6150   23.0937 N    0  0  0  0  0  0  0  0  0  0  0  0
    8.2695   13.5640   23.5464 C    0  0  0  0  0  0  0  0  0  0  0  0
    7.4697   13.0054   22.8099 O    0  0  0  0  0  0  0  0  0  0  0  0
    8.4120   13.1033   25.0106 C    0  0  0  0  0  0  0  0  0  0  0  0
    7.5847   11.8676   25.4033 C    0  0  0  0  0  0  0  0  0  0  0  0
    7.9290   10.5477   25.0046 C    0  0  0  0  0  0  0  0  0  0  0  0
    9.3964   10.2728   24.0061 S    0  0  0  0  0  0  0  0  0  0  0  0
    9.5347    8.5197   23.5492 C    0  0  0  0  0  0  0  0  0  0  0  0
    6.4489   12.0810   26.2087 C    0  0  0  0  0  0  0  0  0  0  0  0
    5.6703   11.0015   26.6384 C    0  0  0  0  0  0  0  0  0  0  0  0
    4.1677   11.3132   27.7635 BR   0  0  0  0  0  0  0  0  0  0  0  0
    6.0046    9.6971   26.2551 C    0  0  0  0  0  0  0  0  0  0  0  0
    7.1144    9.4767   25.4275 C    0  0  0  0  0  0  0  0  0  0  0  0
   10.9176   14.9754   17.7377 H    0  0  0  0  0  0  0  0  0  0  0  0
   11.0976   13.8046   19.0286 H    0  0  0  0  0  0  0  0  0  0  0  0
   10.9340   14.2248   21.1310 H    0  0  0  0  0  0  0  0  0  0  0  0
   12.4354   16.0998   21.6001 H    0  0  0  0  0  0  0  0  0  0  0  0
   11.0810   17.1841   21.8863 H    0  0  0  0  0  0  0  0  0  0  0  0
   11.8774   14.7196   23.5372 H    0  0  0  0  0  0  0  0  0  0  0  0
   11.8890   16.3936   24.0648 H    0  0  0  0  0  0  0  0  0  0  0  0
    9.9695   15.2141   24.9853 H    0  0  0  0  0  0  0  0  0  0  0  0
    9.4216   16.5126   23.9857 H    0  0  0  0  0  0  0  0  0  0  0  0
    8.4942   14.4207   21.0118 H    0  0  0  0  0  0  0  0  0  0  0  0
    8.5345   16.0515   21.6138 H    0  0  0  0  0  0  0  0  0  0  0  0
    9.4609   12.9044   25.2448 H    0  0  0  0  0  0  0  0  0  0  0  0
    8.1305   13.9356   25.6628 H    0  0  0  0  0  0  0  0  0  0  0  0
    8.6892    8.2128   22.9307 H    0  0  0  0  0  0  0  0  0  0  0  0
    9.5980    7.9010   24.4455 H    0  0  0  0  0  0  0  0  0  0  0  0
   10.4542    8.3809   22.9777 H    0  0  0  0  0  0  0  0  0  0  0  0
    6.1806   13.0934   26.5108 H    0  0  0  0  0  0  0  0  0  0  0  0
    5.4045    8.8519   26.5847 H    0  0  0  0  0  0  0  0  0  0  0  0
    7.3212    8.4555   25.1290 H    0  0  0  0  0  0  0  0  0  0  0  0
  9 10  1  0  0  0  0
  7  9  1  0  0  0  0
  6  7  1  0  0  0  0
  5  6  1  0  0  0  0
  4  5  1  0  0  0  0
  2  4  1  0  0  0  0
  1  2  2  0  0  0  0
  3  2  1  0  0  0  0
 22  3  1  0  0  0  0
 23  3  1  0  0  0  0
 24  4  1  0  0  0  0
 25  5  1  0  0  0  0
 26  5  1  0  0  0  0
 27  6  1  0  0  0  0
 28  6  1  0  0  0  0
 29  7  1  0  0  0  0
 30  7  1  0  0  0  0
  8  4  1  0  0  0  0
 31  8  1  0  0  0  0
 32  8  1  0  0  0  0
 11 10  2  0  0  0  0
 12 10  1  0  0  0  0
 33 12  1  0  0  0  0
 34 12  1  0  0  0  0
 13 12  1  0  0  0  0
 14 13  1  0  0  0  0
 21 14  2  0  0  0  0
 15 14  1  0  0  0  0
 16 15  1  0  0  0  0
 35 16  1  0  0  0  0
 36 16  1  0  0  0  0
 37 16  1  0  0  0  0
 17 13  2  0  0  0  0
 38 17  1  0  0  0  0
 18 17  1  0  0  0  0
 19 18  1  0  0  0  0
 20 18  2  0  0  0  0
 39 20  1  0  0  0  0
 40 21  1  0  0  0  0
  9  8  1  0  0  0  0
 21 20  1  0  0  0  0
M  END
>  <FittedScore>
-30.51

$$$$
