A71EV2A-x5868a_lowest-energy
  FITTED

 42 43     0  0  0  0  0  0  0999 V2000
    5.5790   14.2858   22.0481 C    0  0  0  0  0  0  0  0  0  0  0  0
    6.0618   14.8480   23.4166 C    0  0  0  0  0  0  0  0  0  0  0  0
    5.9470   16.3951   23.5207 C    0  0  0  0  0  0  0  0  0  0  0  0
    7.4432   14.2965   23.9504 C    0  0  0  0  0  0  0  0  0  0  0  0
    7.4359   12.7947   24.3092 C    0  0  0  0  0  0  0  0  0  0  0  0
    8.2532   11.8353   23.6721 C    0  0  0  0  0  0  0  0  0  0  0  0
    8.2178   10.4904   24.0617 C    0  0  0  0  0  0  0  0  0  0  0  0
    9.3135    9.3717   23.3098 CL   0  0  0  0  0  0  0  0  0  0  0  0
    7.3352   10.0749   25.0721 C    0  0  0  0  0  0  0  0  0  0  0  0
    6.5386   11.0207   25.7368 C    0  0  0  0  0  0  0  0  0  0  0  0
    5.4272   10.5163   27.1982 BR   0  0  0  0  0  0  0  0  0  0  0  0
    6.6078   12.3715   25.3700 C    0  0  0  0  0  0  0  0  0  0  0  0
    8.7564   14.7544   23.3408 N    0  0  0  0  0  0  0  0  0  0  0  0
    8.7862   14.9091   21.8491 C    0  0  0  0  0  0  0  0  0  0  0  0
   10.1909   15.0902   21.2096 C    0  0  0  0  0  0  0  0  0  0  0  0
   10.1265   15.5784   19.7597 C    0  0  0  0  0  0  0  0  0  0  0  0
   10.7258   14.7864   18.8451 N    0  0  0  0  0  0  0  0  0  0  0  0
    9.5369   16.5809   19.4016 O    0  0  0  0  0  0  0  0  0  0  0  0
   11.0580   16.0224   22.0874 C    0  0  0  0  0  0  0  0  0  0  0  0
   11.2031   15.4039   23.4969 C    0  0  0  0  0  0  0  0  0  0  0  0
    9.8975   14.8731   24.1105 C    0  0  0  0  0  0  0  0  0  0  0  0
    9.9355   14.4332   25.2438 O    0  0  0  0  0  0  0  0  0  0  0  0
    5.8776   13.2433   21.9107 H    0  0  0  0  0  0  0  0  0  0  0  0
    5.9655   14.8608   21.2073 H    0  0  0  0  0  0  0  0  0  0  0  0
    4.4892   14.3244   21.9856 H    0  0  0  0  0  0  0  0  0  0  0  0
    5.3071   14.4945   24.1254 H    0  0  0  0  0  0  0  0  0  0  0  0
    6.1588   16.7336   24.5392 H    0  0  0  0  0  0  0  0  0  0  0  0
    4.9372   16.7260   23.2728 H    0  0  0  0  0  0  0  0  0  0  0  0
    6.6314   16.9154   22.8496 H    0  0  0  0  0  0  0  0  0  0  0  0
    7.4635   14.7730   24.9350 H    0  0  0  0  0  0  0  0  0  0  0  0
    8.9337   12.1183   22.8741 H    0  0  0  0  0  0  0  0  0  0  0  0
    7.3002    9.0263   25.3548 H    0  0  0  0  0  0  0  0  0  0  0  0
    6.0138   13.1068   25.9139 H    0  0  0  0  0  0  0  0  0  0  0  0
    8.1779   15.7739   21.5793 H    0  0  0  0  0  0  0  0  0  0  0  0
    8.3336   14.0356   21.3754 H    0  0  0  0  0  0  0  0  0  0  0  0
   10.6667   14.1002   21.2307 H    0  0  0  0  0  0  0  0  0  0  0  0
   11.0646   13.8647   19.1174 H    0  0  0  0  0  0  0  0  0  0  0  0
   10.7203   15.0419   17.8650 H    0  0  0  0  0  0  0  0  0  0  0  0
   10.5844   17.0071   22.1694 H    0  0  0  0  0  0  0  0  0  0  0  0
   12.0422   16.1739   21.6400 H    0  0  0  0  0  0  0  0  0  0  0  0
   11.6256   16.1630   24.1638 H    0  0  0  0  0  0  0  0  0  0  0  0
   11.9244   14.5856   23.4548 H    0  0  0  0  0  0  0  0  0  0  0  0
  4 13  1  0  0  0  0
  2  4  1  0  0  0  0
  1  2  1  0  0  0  0
 23  1  1  0  0  0  0
 24  1  1  0  0  0  0
 25  1  1  0  0  0  0
  3  2  1  0  0  0  0
 26  2  1  0  0  0  0
 27  3  1  0  0  0  0
 28  3  1  0  0  0  0
 29  3  1  0  0  0  0
  5  4  1  0  0  0  0
 30  4  1  0  0  0  0
  6  5  2  0  0  0  0
  7  6  1  0  0  0  0
 31  6  1  0  0  0  0
  8  7  1  0  0  0  0
  9  7  2  0  0  0  0
 10  9  1  0  0  0  0
 32  9  1  0  0  0  0
 11 10  1  0  0  0  0
 12 10  2  0  0  0  0
 33 12  1  0  0  0  0
 14 13  1  0  0  0  0
 15 14  1  0  0  0  0
 34 14  1  0  0  0  0
 35 14  1  0  0  0  0
 16 15  1  0  0  0  0
 19 15  1  0  0  0  0
 36 15  1  0  0  0  0
 17 16  1  0  0  0  0
 18 16  2  0  0  0  0
 37 17  1  0  0  0  0
 38 17  1  0  0  0  0
 20 19  1  0  0  0  0
 39 19  1  0  0  0  0
 40 19  1  0  0  0  0
 21 20  1  0  0  0  0
 41 20  1  0  0  0  0
 42 20  1  0  0  0  0
 22 21  2  0  0  0  0
 12  5  1  0  0  0  0
 21 13  1  0  0  0  0
M  END
>  <FittedScore>
-33.43

$$$$
