A71EV2A-x5868a_best-RMSD
  FITTED

 42 43     0  0  0  0  0  0  0999 V2000
    6.1129   16.5521   23.5681 C    0  0  0  0  0  0  0  0  0  0  0  0
    6.1133   15.0221   23.2834 C    0  0  0  0  0  0  0  0  0  0  0  0
    4.7482   14.4658   23.7816 C    0  0  0  0  0  0  0  0  0  0  0  0
    7.4125   14.3408   23.9032 C    0  0  0  0  0  0  0  0  0  0  0  0
    7.3999   12.8165   24.2127 C    0  0  0  0  0  0  0  0  0  0  0  0
    8.2200   11.8734   23.5469 C    0  0  0  0  0  0  0  0  0  0  0  0
    8.2614   10.5301   23.9558 C    0  0  0  0  0  0  0  0  0  0  0  0
    9.3792    9.4301   23.2102 CL   0  0  0  0  0  0  0  0  0  0  0  0
    7.4338   10.0950   25.0000 C    0  0  0  0  0  0  0  0  0  0  0  0
    6.6287   11.0180   25.6828 C    0  0  0  0  0  0  0  0  0  0  0  0
    5.5555   10.4853   27.1643 BR   0  0  0  0  0  0  0  0  0  0  0  0
    6.6505   12.3684   25.3206 C    0  0  0  0  0  0  0  0  0  0  0  0
    8.7592   14.7580   23.3312 N    0  0  0  0  0  0  0  0  0  0  0  0
    8.8131   14.9618   21.8381 C    0  0  0  0  0  0  0  0  0  0  0  0
   10.2415   15.0483   21.2222 C    0  0  0  0  0  0  0  0  0  0  0  0
   10.2392   15.5562   19.7765 C    0  0  0  0  0  0  0  0  0  0  0  0
   10.7602   14.7363   18.8447 N    0  0  0  0  0  0  0  0  0  0  0  0
    9.7911   16.6334   19.4398 O    0  0  0  0  0  0  0  0  0  0  0  0
   11.1438   15.9169   22.1292 C    0  0  0  0  0  0  0  0  0  0  0  0
   11.2294   15.2748   23.5329 C    0  0  0  0  0  0  0  0  0  0  0  0
    9.8918   14.8019   24.1222 C    0  0  0  0  0  0  0  0  0  0  0  0
    9.8992   14.3495   25.2527 O    0  0  0  0  0  0  0  0  0  0  0  0
    7.0409   17.0382   23.2636 H    0  0  0  0  0  0  0  0  0  0  0  0
    5.9677   16.7675   24.6291 H    0  0  0  0  0  0  0  0  0  0  0  0
    5.3159   17.0499   23.0125 H    0  0  0  0  0  0  0  0  0  0  0  0
    6.0960   14.8670   22.2006 H    0  0  0  0  0  0  0  0  0  0  0  0
    4.6616   13.3961   23.5833 H    0  0  0  0  0  0  0  0  0  0  0  0
    3.9134   14.9413   23.2632 H    0  0  0  0  0  0  0  0  0  0  0  0
    4.6042   14.6342   24.8516 H    0  0  0  0  0  0  0  0  0  0  0  0
    7.4225   14.7862   24.9041 H    0  0  0  0  0  0  0  0  0  0  0  0
    8.8576   12.1739   22.7206 H    0  0  0  0  0  0  0  0  0  0  0  0
    7.4552    9.0505   25.3027 H    0  0  0  0  0  0  0  0  0  0  0  0
    6.0812   13.0836   25.9070 H    0  0  0  0  0  0  0  0  0  0  0  0
    8.2771   15.8785   21.5927 H    0  0  0  0  0  0  0  0  0  0  0  0
    8.2832   14.1549   21.3269 H    0  0  0  0  0  0  0  0  0  0  0  0
   10.6324   14.0202   21.2369 H    0  0  0  0  0  0  0  0  0  0  0  0
   10.7588   15.0121   17.8672 H    0  0  0  0  0  0  0  0  0  0  0  0
   11.0370   13.7873   19.0870 H    0  0  0  0  0  0  0  0  0  0  0  0
   10.7246   16.9245   22.2172 H    0  0  0  0  0  0  0  0  0  0  0  0
   12.1450   16.0170   21.7029 H    0  0  0  0  0  0  0  0  0  0  0  0
   11.6751   16.0062   24.2197 H    0  0  0  0  0  0  0  0  0  0  0  0
   11.9041   14.4121   23.4943 H    0  0  0  0  0  0  0  0  0  0  0  0
  4 13  1  0  0  0  0
  2  4  1  0  0  0  0
  1  2  1  0  0  0  0
 23  1  1  0  0  0  0
 24  1  1  0  0  0  0
 25  1  1  0  0  0  0
  3  2  1  0  0  0  0
 26  2  1  0  0  0  0
 27  3  1  0  0  0  0
 28  3  1  0  0  0  0
 29  3  1  0  0  0  0
  5  4  1  0  0  0  0
 30  4  1  0  0  0  0
  6  5  2  0  0  0  0
  7  6  1  0  0  0  0
 31  6  1  0  0  0  0
  8  7  1  0  0  0  0
  9  7  2  0  0  0  0
 10  9  1  0  0  0  0
 32  9  1  0  0  0  0
 11 10  1  0  0  0  0
 12 10  2  0  0  0  0
 33 12  1  0  0  0  0
 14 13  1  0  0  0  0
 15 14  1  0  0  0  0
 34 14  1  0  0  0  0
 35 14  1  0  0  0  0
 16 15  1  0  0  0  0
 19 15  1  0  0  0  0
 36 15  1  0  0  0  0
 17 16  1  0  0  0  0
 18 16  2  0  0  0  0
 37 17  1  0  0  0  0
 38 17  1  0  0  0  0
 20 19  1  0  0  0  0
 39 19  1  0  0  0  0
 40 19  1  0  0  0  0
 21 20  1  0  0  0  0
 41 20  1  0  0  0  0
 42 20  1  0  0  0  0
 22 21  2  0  0  0  0
 12  5  1  0  0  0  0
 21 13  1  0  0  0  0
M  END
>  <FittedScore>
-33.09

$$$$
