A71EV2A-x4423a_lowest-energy
  FITTED

 42 43     0  0  0  0  0  0  0999 V2000
    7.3223   13.0698   23.4156 O    0  0  0  0  0  0  0  0  0  0  0  0
    8.1438   13.5131   24.2039 C    0  0  0  0  0  0  0  0  0  0  0  0
    8.9672   14.5676   23.8696 N    0  0  0  0  0  0  0  0  0  0  0  0
    8.9228   15.2480   22.5407 C    0  0  0  0  0  0  0  0  0  0  0  0
   10.1518   14.8660   21.6597 C    0  0  0  0  0  0  0  0  0  0  0  0
   10.0961   15.6488   20.3192 C    0  0  0  0  0  0  0  0  0  0  0  0
   11.1178   15.1396   19.2793 C    0  0  0  0  0  0  0  0  0  0  0  0
   10.9359   15.8404   18.0610 O    0  0  0  0  0  0  0  0  0  0  0  0
   11.5070   15.0887   22.4225 C    0  0  0  0  0  0  0  0  0  0  0  0
   11.4769   14.5368   23.8703 C    0  0  0  0  0  0  0  0  0  0  0  0
   10.2002   15.0057   24.6110 C    0  0  0  0  0  0  0  0  0  0  0  0
    8.3904   12.8184   25.5482 C    0  0  0  0  0  0  0  0  0  0  0  0
    7.5781   11.5501   25.7786 C    0  0  0  0  0  0  0  0  0  0  0  0
    7.9112   10.3384   25.1288 C    0  0  0  0  0  0  0  0  0  0  0  0
    9.0322   10.2918   24.2986 O    0  0  0  0  0  0  0  0  0  0  0  0
    9.4508    9.1729   23.4859 C    0  0  0  0  0  0  0  0  0  0  0  0
    6.4598   11.5899   26.6400 C    0  0  0  0  0  0  0  0  0  0  0  0
    5.6716   10.5053   26.8697 N    0  0  0  0  0  0  0  0  0  0  0  0
    5.9782    9.3507   26.2214 C    0  0  0  0  0  0  0  0  0  0  0  0
    7.0743    9.2311   25.3512 C    0  0  0  0  0  0  0  0  0  0  0  0
    8.0001   15.0230   21.9978 H    0  0  0  0  0  0  0  0  0  0  0  0
    8.8865   16.3302   22.6974 H    0  0  0  0  0  0  0  0  0  0  0  0
   10.0632   13.7943   21.4408 H    0  0  0  0  0  0  0  0  0  0  0  0
   10.2591   16.7166   20.5102 H    0  0  0  0  0  0  0  0  0  0  0  0
    9.0874   15.5609   19.8970 H    0  0  0  0  0  0  0  0  0  0  0  0
   10.9858   14.0683   19.1041 H    0  0  0  0  0  0  0  0  0  0  0  0
   12.1390   15.3098   19.6164 H    0  0  0  0  0  0  0  0  0  0  0  0
   10.5826   15.1975   17.4104 H    0  0  0  0  0  0  0  0  0  0  0  0
   12.3205   14.5830   21.8965 H    0  0  0  0  0  0  0  0  0  0  0  0
   11.7616   16.1525   22.4506 H    0  0  0  0  0  0  0  0  0  0  0  0
   11.5212   13.4433   23.8480 H    0  0  0  0  0  0  0  0  0  0  0  0
   12.3619   14.8814   24.4099 H    0  0  0  0  0  0  0  0  0  0  0  0
   10.2503   14.6742   25.6472 H    0  0  0  0  0  0  0  0  0  0  0  0
   10.2099   16.0968   24.6887 H    0  0  0  0  0  0  0  0  0  0  0  0
    9.4441   12.5407   25.6415 H    0  0  0  0  0  0  0  0  0  0  0  0
    8.1960   13.5375   26.3483 H    0  0  0  0  0  0  0  0  0  0  0  0
   10.3270    9.4653   22.9010 H    0  0  0  0  0  0  0  0  0  0  0  0
    8.6472    8.8912   22.7976 H    0  0  0  0  0  0  0  0  0  0  0  0
    9.7273    8.3251   24.1148 H    0  0  0  0  0  0  0  0  0  0  0  0
    6.2043   12.5210   27.1435 H    0  0  0  0  0  0  0  0  0  0  0  0
    5.3543    8.4757   26.3888 H    0  0  0  0  0  0  0  0  0  0  0  0
    7.2567    8.2759   24.8686 H    0  0  0  0  0  0  0  0  0  0  0  0
  2  1  2  0  0  0  0
  3  2  1  0  0  0  0
 11  3  1  0  0  0  0
  4  3  1  0  0  0  0
 21  4  1  0  0  0  0
 22  4  1  0  0  0  0
  5  4  1  0  0  0  0
  6  5  1  0  0  0  0
 23  5  1  0  0  0  0
 24  6  1  0  0  0  0
 25  6  1  0  0  0  0
  7  6  1  0  0  0  0
 26  7  1  0  0  0  0
 27  7  1  0  0  0  0
  8  7  1  0  0  0  0
 28  8  1  0  0  0  0
  9  5  1  0  0  0  0
 29  9  1  0  0  0  0
 30  9  1  0  0  0  0
 10  9  1  0  0  0  0
 31 10  1  0  0  0  0
 32 10  1  0  0  0  0
 33 11  1  0  0  0  0
 34 11  1  0  0  0  0
 12  2  1  0  0  0  0
 35 12  1  0  0  0  0
 36 12  1  0  0  0  0
 13 12  1  0  0  0  0
 14 13  1  0  0  0  0
 20 14  2  0  0  0  0
 15 14  1  0  0  0  0
 16 15  1  0  0  0  0
 37 16  1  0  0  0  0
 38 16  1  0  0  0  0
 39 16  1  0  0  0  0
 17 13  2  0  0  0  0
 40 17  1  0  0  0  0
 18 17  1  0  0  0  0
 19 18  2  0  0  0  0
 41 19  1  0  0  0  0
 42 20  1  0  0  0  0
 11 10  1  0  0  0  0
 20 19  1  0  0  0  0
M  END
>  <FittedScore>
-29.98

$$$$
