A71EV2A-x4423a_best-RMSD
  FITTED

 42 43     0  0  0  0  0  0  0999 V2000
    7.4638   13.0262   23.3267 O    0  0  0  0  0  0  0  0  0  0  0  0
    8.2931   13.4657   24.1063 C    0  0  0  0  0  0  0  0  0  0  0  0
    9.0604   14.5738   23.7968 N    0  0  0  0  0  0  0  0  0  0  0  0
    9.0033   15.2725   22.4756 C    0  0  0  0  0  0  0  0  0  0  0  0
   10.2633   14.9574   21.6106 C    0  0  0  0  0  0  0  0  0  0  0  0
   10.2031   15.7155   20.2591 C    0  0  0  0  0  0  0  0  0  0  0  0
   11.2339   15.1906   19.2382 C    0  0  0  0  0  0  0  0  0  0  0  0
   11.0361   15.8691   18.0160 O    0  0  0  0  0  0  0  0  0  0  0  0
   11.5898   15.2549   22.3930 C    0  0  0  0  0  0  0  0  0  0  0  0
   11.5675   14.6647   23.8249 C    0  0  0  0  0  0  0  0  0  0  0  0
   10.2620   15.0538   24.5617 C    0  0  0  0  0  0  0  0  0  0  0  0
    8.6277   12.7028   25.3926 C    0  0  0  0  0  0  0  0  0  0  0  0
    7.7977   11.4418   25.6273 C    0  0  0  0  0  0  0  0  0  0  0  0
    8.1055   10.2240   24.9817 C    0  0  0  0  0  0  0  0  0  0  0  0
    9.2377   10.1434   24.1810 O    0  0  0  0  0  0  0  0  0  0  0  0
    9.6575    8.9968   23.4085 C    0  0  0  0  0  0  0  0  0  0  0  0
    6.6718   11.4975   26.4766 C    0  0  0  0  0  0  0  0  0  0  0  0
    5.8629   10.4280   26.6931 N    0  0  0  0  0  0  0  0  0  0  0  0
    6.1363    9.2740   26.0306 C    0  0  0  0  0  0  0  0  0  0  0  0
    7.2372    9.1352   25.1759 C    0  0  0  0  0  0  0  0  0  0  0  0
    8.1006   15.0042   21.9205 H    0  0  0  0  0  0  0  0  0  0  0  0
    8.9237   16.3545   22.6307 H    0  0  0  0  0  0  0  0  0  0  0  0
   10.2358   13.8829   21.4009 H    0  0  0  0  0  0  0  0  0  0  0  0
   10.3499   16.7892   20.4159 H    0  0  0  0  0  0  0  0  0  0  0  0
    9.2023   15.6031   19.8308 H    0  0  0  0  0  0  0  0  0  0  0  0
   11.1044   14.1188   19.0764 H    0  0  0  0  0  0  0  0  0  0  0  0
   12.2619   15.3703   19.5646 H    0  0  0  0  0  0  0  0  0  0  0  0
   10.1428   15.6385   17.7101 H    0  0  0  0  0  0  0  0  0  0  0  0
   12.4442   14.8260   21.8645 H    0  0  0  0  0  0  0  0  0  0  0  0
   11.7667   16.3328   22.4538 H    0  0  0  0  0  0  0  0  0  0  0  0
   11.6703   13.5763   23.7812 H    0  0  0  0  0  0  0  0  0  0  0  0
   12.4292   15.0380   24.3816 H    0  0  0  0  0  0  0  0  0  0  0  0
   10.3148   14.7029   25.5917 H    0  0  0  0  0  0  0  0  0  0  0  0
   10.2198   16.1432   24.6686 H    0  0  0  0  0  0  0  0  0  0  0  0
    9.6855   12.4199   25.3834 H    0  0  0  0  0  0  0  0  0  0  0  0
    8.5007   13.3851   26.2388 H    0  0  0  0  0  0  0  0  0  0  0  0
    9.8585    8.1456   24.0664 H    0  0  0  0  0  0  0  0  0  0  0  0
   10.5833    9.2652   22.8942 H    0  0  0  0  0  0  0  0  0  0  0  0
    8.9042    8.7284   22.6618 H    0  0  0  0  0  0  0  0  0  0  0  0
    6.4233   12.4323   26.9730 H    0  0  0  0  0  0  0  0  0  0  0  0
    5.4815    8.4157   26.1624 H    0  0  0  0  0  0  0  0  0  0  0  0
    7.4011    8.1829   24.6809 H    0  0  0  0  0  0  0  0  0  0  0  0
  2  1  2  0  0  0  0
  3  2  1  0  0  0  0
 11  3  1  0  0  0  0
  4  3  1  0  0  0  0
 21  4  1  0  0  0  0
 22  4  1  0  0  0  0
  5  4  1  0  0  0  0
  6  5  1  0  0  0  0
 23  5  1  0  0  0  0
 24  6  1  0  0  0  0
 25  6  1  0  0  0  0
  7  6  1  0  0  0  0
 26  7  1  0  0  0  0
 27  7  1  0  0  0  0
  8  7  1  0  0  0  0
 28  8  1  0  0  0  0
  9  5  1  0  0  0  0
 29  9  1  0  0  0  0
 30  9  1  0  0  0  0
 10  9  1  0  0  0  0
 31 10  1  0  0  0  0
 32 10  1  0  0  0  0
 33 11  1  0  0  0  0
 34 11  1  0  0  0  0
 12  2  1  0  0  0  0
 35 12  1  0  0  0  0
 36 12  1  0  0  0  0
 13 12  1  0  0  0  0
 14 13  1  0  0  0  0
 20 14  2  0  0  0  0
 15 14  1  0  0  0  0
 16 15  1  0  0  0  0
 37 16  1  0  0  0  0
 38 16  1  0  0  0  0
 39 16  1  0  0  0  0
 17 13  2  0  0  0  0
 40 17  1  0  0  0  0
 18 17  1  0  0  0  0
 19 18  2  0  0  0  0
 41 19  1  0  0  0  0
 42 20  1  0  0  0  0
 11 10  1  0  0  0  0
 20 19  1  0  0  0  0
M  END
>  <FittedScore>
-30.44

$$$$
