A71EV2A-x7297a_lowest-energy
  FITTED

 54 56     0  0  0  0  0  0  0999 V2000
    1.7388   13.6830   24.3713 C    0  0  0  0  0  0  0  0  0  0  0  0
    2.9243   13.3957   25.1985 N    0  0  0  0  0  0  0  0  0  0  0  0
    2.9924   13.4700   26.5588 C    0  0  0  0  0  0  0  0  0  0  0  0
    1.9698   13.6952   27.1900 O    0  0  0  0  0  0  0  0  0  0  0  0
    4.3960   13.0818   27.1226 C    0  0  0  0  0  0  0  0  0  0  0  0
    4.6876   14.4745   27.8062 C    0  0  0  0  0  0  0  0  0  0  0  0
    6.0514   14.1631   27.1077 C    0  0  0  0  0  0  0  0  0  0  0  0
    5.6524   12.9763   26.2886 N    0  0  0  0  0  0  0  0  0  0  0  0
    6.3720   11.8302   25.9778 C    0  0  0  0  0  0  0  0  0  0  0  0
    5.7255   10.6678   26.2555 N    0  0  0  0  0  0  0  0  0  0  0  0
    6.2755    9.4945   25.8813 C    0  0  0  0  0  0  0  0  0  0  0  0
    7.4274    9.3810   25.1879 N    0  0  0  0  0  0  0  0  0  0  0  0
    8.1158   10.5177   24.8963 C    0  0  0  0  0  0  0  0  0  0  0  0
    9.5859   10.3338   23.9012 S    0  0  0  0  0  0  0  0  0  0  0  0
    9.6577    8.5931   23.3841 C    0  0  0  0  0  0  0  0  0  0  0  0
    7.6482   11.7933   25.3342 C    0  0  0  0  0  0  0  0  0  0  0  0
    8.4621   13.0627   25.0153 C    0  0  0  0  0  0  0  0  0  0  0  0
    8.1900   13.6472   23.6242 C    0  0  0  0  0  0  0  0  0  0  0  0
    7.3781   13.0955   22.8940 O    0  0  0  0  0  0  0  0  0  0  0  0
    8.9300   14.7317   23.1981 N    0  0  0  0  0  0  0  0  0  0  0  0
    9.8317   15.5985   24.0368 C    0  0  0  0  0  0  0  0  0  0  0  0
   11.2898   15.6884   23.5057 C    0  0  0  0  0  0  0  0  0  0  0  0
   11.3422   16.0898   22.0059 C    0  0  0  0  0  0  0  0  0  0  0  0
   10.3651   15.2106   21.1676 C    0  0  0  0  0  0  0  0  0  0  0  0
   10.3537   15.6507   19.7088 C    0  0  0  0  0  0  0  0  0  0  0  0
   10.8691   14.7678   18.8333 N    0  0  0  0  0  0  0  0  0  0  0  0
    9.7861   16.6523   19.3190 O    0  0  0  0  0  0  0  0  0  0  0  0
    8.9289   15.2120   21.7847 C    0  0  0  0  0  0  0  0  0  0  0  0
    1.3741   14.6962   24.5584 H    0  0  0  0  0  0  0  0  0  0  0  0
    0.9411   12.9686   24.5849 H    0  0  0  0  0  0  0  0  0  0  0  0
    1.9926   13.5931   23.3134 H    0  0  0  0  0  0  0  0  0  0  0  0
    3.7412   13.0716   24.6829 H    0  0  0  0  0  0  0  0  0  0  0  0
    4.2964   12.2722   27.8580 H    0  0  0  0  0  0  0  0  0  0  0  0
    4.6854   14.4733   28.9011 H    0  0  0  0  0  0  0  0  0  0  0  0
    4.2221   15.3997   27.4403 H    0  0  0  0  0  0  0  0  0  0  0  0
    6.8609   13.9346   27.8139 H    0  0  0  0  0  0  0  0  0  0  0  0
    6.4022   14.9968   26.4897 H    0  0  0  0  0  0  0  0  0  0  0  0
    5.7363    8.5841   26.1337 H    0  0  0  0  0  0  0  0  0  0  0  0
    9.7354    7.9481   24.2613 H    0  0  0  0  0  0  0  0  0  0  0  0
   10.5377    8.4362   22.7554 H    0  0  0  0  0  0  0  0  0  0  0  0
    8.7605    8.3396   22.8147 H    0  0  0  0  0  0  0  0  0  0  0  0
    9.5310   12.8561   25.1148 H    0  0  0  0  0  0  0  0  0  0  0  0
    8.2934   13.8153   25.7783 H    0  0  0  0  0  0  0  0  0  0  0  0
    9.8907   15.2921   25.0788 H    0  0  0  0  0  0  0  0  0  0  0  0
    9.4063   16.6074   24.0723 H    0  0  0  0  0  0  0  0  0  0  0  0
   11.7947   14.7277   23.6431 H    0  0  0  0  0  0  0  0  0  0  0  0
   11.8461   16.4239   24.0931 H    0  0  0  0  0  0  0  0  0  0  0  0
   12.3602   15.9586   21.6309 H    0  0  0  0  0  0  0  0  0  0  0  0
   11.0991   17.1539   21.8955 H    0  0  0  0  0  0  0  0  0  0  0  0
   10.7358   14.1785   21.2246 H    0  0  0  0  0  0  0  0  0  0  0  0
   10.8280   14.9651   17.8404 H    0  0  0  0  0  0  0  0  0  0  0  0
   11.1324   13.8341   19.1516 H    0  0  0  0  0  0  0  0  0  0  0  0
    8.2768   14.6129   21.1428 H    0  0  0  0  0  0  0  0  0  0  0  0
    8.5048   16.2230   21.7555 H    0  0  0  0  0  0  0  0  0  0  0  0
 17 18  1  0  0  0  0
 16 17  1  0  0  0  0
 13 16  2  0  0  0  0
 12 13  1  0  0  0  0
 11 12  2  0  0  0  0
 10 11  1  0  0  0  0
  9 10  2  0  0  0  0
  8  9  1  0  0  0  0
  7  8  1  0  0  0  0
  6  7  1  0  0  0  0
  5  6  1  0  0  0  0
  3  5  1  0  0  0  0
  2  3  1  0  0  0  0
  1  2  1  0  0  0  0
 29  1  1  0  0  0  0
 30  1  1  0  0  0  0
 31  1  1  0  0  0  0
 32  2  1  0  0  0  0
  4  3  2  0  0  0  0
 33  5  1  0  0  0  0
 34  6  1  0  0  0  0
 35  6  1  0  0  0  0
 36  7  1  0  0  0  0
 37  7  1  0  0  0  0
 38 11  1  0  0  0  0
 14 13  1  0  0  0  0
 15 14  1  0  0  0  0
 39 15  1  0  0  0  0
 40 15  1  0  0  0  0
 41 15  1  0  0  0  0
 42 17  1  0  0  0  0
 43 17  1  0  0  0  0
 19 18  2  0  0  0  0
 20 18  1  0  0  0  0
 21 20  1  0  0  0  0
 22 21  1  0  0  0  0
 44 21  1  0  0  0  0
 45 21  1  0  0  0  0
 23 22  1  0  0  0  0
 46 22  1  0  0  0  0
 47 22  1  0  0  0  0
 24 23  1  0  0  0  0
 48 23  1  0  0  0  0
 49 23  1  0  0  0  0
 25 24  1  0  0  0  0
 28 24  1  0  0  0  0
 50 24  1  0  0  0  0
 26 25  1  0  0  0  0
 27 25  2  0  0  0  0
 51 26  1  0  0  0  0
 52 26  1  0  0  0  0
 53 28  1  0  0  0  0
 54 28  1  0  0  0  0
  8  5  1  0  0  0  0
 16  9  1  0  0  0  0
 28 20  1  0  0  0  0
M  END
>  <FittedScore>
-35.14

$$$$
