A71EV2A-x7297a_best-RMSD
  FITTED

 54 56     0  0  0  0  0  0  0999 V2000
    8.4454   17.3443   27.4385 C    0  0  0  0  0  0  0  0  0  0  0  0
    7.4296   16.4170   26.9150 N    0  0  0  0  0  0  0  0  0  0  0  0
    7.0252   15.2568   27.4912 C    0  0  0  0  0  0  0  0  0  0  0  0
    7.4780   14.9548   28.5838 O    0  0  0  0  0  0  0  0  0  0  0  0
    6.1187   14.4258   26.5323 C    0  0  0  0  0  0  0  0  0  0  0  0
    4.7315   14.8439   27.1665 C    0  0  0  0  0  0  0  0  0  0  0  0
    4.6547   13.2792   27.2243 C    0  0  0  0  0  0  0  0  0  0  0  0
    6.0552   12.9659   26.8063 N    0  0  0  0  0  0  0  0  0  0  0  0
    6.5903   11.8405   26.2014 C    0  0  0  0  0  0  0  0  0  0  0  0
    5.8777   10.7107   26.4440 N    0  0  0  0  0  0  0  0  0  0  0  0
    6.2952    9.5404   25.9147 C    0  0  0  0  0  0  0  0  0  0  0  0
    7.3856    9.4075   25.1264 N    0  0  0  0  0  0  0  0  0  0  0  0
    8.1382   10.5085   24.8714 C    0  0  0  0  0  0  0  0  0  0  0  0
    9.5536   10.2977   23.7995 S    0  0  0  0  0  0  0  0  0  0  0  0
    9.6508    8.5245   23.4128 C    0  0  0  0  0  0  0  0  0  0  0  0
    7.7850   11.7759   25.4149 C    0  0  0  0  0  0  0  0  0  0  0  0
    8.6332   13.0089   25.0686 C    0  0  0  0  0  0  0  0  0  0  0  0
    8.2298   13.6532   23.7308 C    0  0  0  0  0  0  0  0  0  0  0  0
    7.4043   13.1010   23.0127 O    0  0  0  0  0  0  0  0  0  0  0  0
    8.9252   14.7630   23.2959 N    0  0  0  0  0  0  0  0  0  0  0  0
    9.9016   15.5904   24.0928 C    0  0  0  0  0  0  0  0  0  0  0  0
   11.3379   15.5862   23.5014 C    0  0  0  0  0  0  0  0  0  0  0  0
   11.3475   15.9961   22.0035 C    0  0  0  0  0  0  0  0  0  0  0  0
   10.2952   15.1724   21.1994 C    0  0  0  0  0  0  0  0  0  0  0  0
   10.2707   15.6099   19.7360 C    0  0  0  0  0  0  0  0  0  0  0  0
   10.8476   14.7704   18.8556 N    0  0  0  0  0  0  0  0  0  0  0  0
    9.7297   16.6230   19.3378 O    0  0  0  0  0  0  0  0  0  0  0  0
    8.8855   15.2445   21.8746 C    0  0  0  0  0  0  0  0  0  0  0  0
    9.3954   16.8280   27.5919 H    0  0  0  0  0  0  0  0  0  0  0  0
    8.1219   17.7876   28.3839 H    0  0  0  0  0  0  0  0  0  0  0  0
    8.6073   18.1482   26.7180 H    0  0  0  0  0  0  0  0  0  0  0  0
    6.9259   16.7388   26.0922 H    0  0  0  0  0  0  0  0  0  0  0  0
    6.2058   14.6671   25.4643 H    0  0  0  0  0  0  0  0  0  0  0  0
    4.0238   15.3224   26.4811 H    0  0  0  0  0  0  0  0  0  0  0  0
    4.6687   15.3343   28.1469 H    0  0  0  0  0  0  0  0  0  0  0  0
    3.9095   12.8565   26.5403 H    0  0  0  0  0  0  0  0  0  0  0  0
    4.4221   12.8870   28.2203 H    0  0  0  0  0  0  0  0  0  0  0  0
    5.7098    8.6507   26.1311 H    0  0  0  0  0  0  0  0  0  0  0  0
   10.5326    8.3258   22.8036 H    0  0  0  0  0  0  0  0  0  0  0  0
    8.7630    8.2143   22.8603 H    0  0  0  0  0  0  0  0  0  0  0  0
    9.7295    7.9458   24.3328 H    0  0  0  0  0  0  0  0  0  0  0  0
    9.6940   12.7577   25.0335 H    0  0  0  0  0  0  0  0  0  0  0  0
    8.5990   13.7081   25.8941 H    0  0  0  0  0  0  0  0  0  0  0  0
    9.9798   15.2937   25.1362 H    0  0  0  0  0  0  0  0  0  0  0  0
    9.5346   16.6216   24.1384 H    0  0  0  0  0  0  0  0  0  0  0  0
   11.7778   14.5913   23.6101 H    0  0  0  0  0  0  0  0  0  0  0  0
   11.9712   16.2739   24.0652 H    0  0  0  0  0  0  0  0  0  0  0  0
   12.3442   15.8285   21.5863 H    0  0  0  0  0  0  0  0  0  0  0  0
   11.1399   17.0683   21.9157 H    0  0  0  0  0  0  0  0  0  0  0  0
   10.6046   14.1199   21.2486 H    0  0  0  0  0  0  0  0  0  0  0  0
   10.8021   14.9809   17.8640 H    0  0  0  0  0  0  0  0  0  0  0  0
   11.1553   13.8495   19.1643 H    0  0  0  0  0  0  0  0  0  0  0  0
    8.1854   14.6732   21.2552 H    0  0  0  0  0  0  0  0  0  0  0  0
    8.5084   16.2742   21.8553 H    0  0  0  0  0  0  0  0  0  0  0  0
 17 18  1  0  0  0  0
 16 17  1  0  0  0  0
 13 16  2  0  0  0  0
 12 13  1  0  0  0  0
 11 12  2  0  0  0  0
 10 11  1  0  0  0  0
  9 10  2  0  0  0  0
  8  9  1  0  0  0  0
  7  8  1  0  0  0  0
  6  7  1  0  0  0  0
  5  6  1  0  0  0  0
  3  5  1  0  0  0  0
  2  3  1  0  0  0  0
  1  2  1  0  0  0  0
 29  1  1  0  0  0  0
 30  1  1  0  0  0  0
 31  1  1  0  0  0  0
 32  2  1  0  0  0  0
  4  3  2  0  0  0  0
 33  5  1  0  0  0  0
 34  6  1  0  0  0  0
 35  6  1  0  0  0  0
 36  7  1  0  0  0  0
 37  7  1  0  0  0  0
 38 11  1  0  0  0  0
 14 13  1  0  0  0  0
 15 14  1  0  0  0  0
 39 15  1  0  0  0  0
 40 15  1  0  0  0  0
 41 15  1  0  0  0  0
 42 17  1  0  0  0  0
 43 17  1  0  0  0  0
 19 18  2  0  0  0  0
 20 18  1  0  0  0  0
 21 20  1  0  0  0  0
 22 21  1  0  0  0  0
 44 21  1  0  0  0  0
 45 21  1  0  0  0  0
 23 22  1  0  0  0  0
 46 22  1  0  0  0  0
 47 22  1  0  0  0  0
 24 23  1  0  0  0  0
 48 23  1  0  0  0  0
 49 23  1  0  0  0  0
 25 24  1  0  0  0  0
 28 24  1  0  0  0  0
 50 24  1  0  0  0  0
 26 25  1  0  0  0  0
 27 25  2  0  0  0  0
 51 26  1  0  0  0  0
 52 26  1  0  0  0  0
 53 28  1  0  0  0  0
 54 28  1  0  0  0  0
  8  5  1  0  0  0  0
 16  9  1  0  0  0  0
 28 20  1  0  0  0  0
M  END
>  <FittedScore>
-34.53

$$$$
