A71EV2A-x5850a_lowest-energy
  FITTED

 47 49     0  0  0  0  0  0  0999 V2000
    9.5329    9.2131   23.3897 C    0  0  0  0  0  0  0  0  0  0  0  0
    9.3234   10.7715   24.3055 S    0  0  0  0  0  0  0  0  0  0  0  0
    7.6753   10.7550   25.0326 C    0  0  0  0  0  0  0  0  0  0  0  0
    7.0601    9.5237   25.3154 C    0  0  0  0  0  0  0  0  0  0  0  0
    5.7905    9.4614   25.8889 C    0  0  0  0  0  0  0  0  0  0  0  0
    5.0994   10.6304   26.1903 C    0  0  0  0  0  0  0  0  0  0  0  0
    5.6744   11.8789   25.9145 C    0  0  0  0  0  0  0  0  0  0  0  0
    6.9839   11.9569   25.3572 C    0  0  0  0  0  0  0  0  0  0  0  0
    7.6328   13.3463   25.1158 C    0  0  0  0  0  0  0  0  0  0  0  0
    7.7702   13.6857   23.6047 C    0  0  0  0  0  0  0  0  0  0  0  0
    7.0120   13.1479   22.8104 O    0  0  0  0  0  0  0  0  0  0  0  0
    8.7138   14.6055   23.1702 N    0  0  0  0  0  0  0  0  0  0  0  0
    9.7235   15.3337   24.0196 C    0  0  0  0  0  0  0  0  0  0  0  0
   11.1726   15.2611   23.4682 C    0  0  0  0  0  0  0  0  0  0  0  0
   11.2472   15.7752   22.0114 C    0  0  0  0  0  0  0  0  0  0  0  0
   10.1845   15.0775   21.1163 C    0  0  0  0  0  0  0  0  0  0  0  0
   10.2293   15.6503   19.6940 C    0  0  0  0  0  0  0  0  0  0  0  0
   10.7104   14.8090   18.7591 N    0  0  0  0  0  0  0  0  0  0  0  0
    9.8627   16.7751   19.3903 O    0  0  0  0  0  0  0  0  0  0  0  0
    8.7603   15.1343   21.7605 C    0  0  0  0  0  0  0  0  0  0  0  0
    6.9478   14.5181   25.8905 C    0  0  0  0  0  0  0  0  0  0  0  0
    5.4105   14.4729   25.7543 C    0  0  0  0  0  0  0  0  0  0  0  0
    4.8603   13.1269   26.2735 C    0  0  0  0  0  0  0  0  0  0  0  0
   10.4473    9.2762   22.7959 H    0  0  0  0  0  0  0  0  0  0  0  0
    8.6805    9.0635   22.7207 H    0  0  0  0  0  0  0  0  0  0  0  0
    9.6151    8.3783   24.0870 H    0  0  0  0  0  0  0  0  0  0  0  0
    7.5539    8.5841   25.1069 H    0  0  0  0  0  0  0  0  0  0  0  0
    5.3397    8.4938   26.0936 H    0  0  0  0  0  0  0  0  0  0  0  0
    4.1102   10.5583   26.6342 H    0  0  0  0  0  0  0  0  0  0  0  0
    8.6177   13.2430   25.5741 H    0  0  0  0  0  0  0  0  0  0  0  0
    9.7756   14.9801   25.0450 H    0  0  0  0  0  0  0  0  0  0  0  0
    9.4207   16.3808   24.1032 H    0  0  0  0  0  0  0  0  0  0  0  0
   11.5285   14.2279   23.5130 H    0  0  0  0  0  0  0  0  0  0  0  0
   11.8363   15.8563   24.1013 H    0  0  0  0  0  0  0  0  0  0  0  0
   12.2457   15.5837   21.6109 H    0  0  0  0  0  0  0  0  0  0  0  0
   11.1050   16.8596   21.9999 H    0  0  0  0  0  0  0  0  0  0  0  0
   10.4503   14.0127   21.0828 H    0  0  0  0  0  0  0  0  0  0  0  0
   10.9312   13.8543   19.0114 H    0  0  0  0  0  0  0  0  0  0  0  0
   10.6841   15.0637   17.7794 H    0  0  0  0  0  0  0  0  0  0  0  0
    8.0817   14.5998   21.0914 H    0  0  0  0  0  0  0  0  0  0  0  0
    8.3933   16.1666   21.7664 H    0  0  0  0  0  0  0  0  0  0  0  0
    7.3112   15.4926   25.5585 H    0  0  0  0  0  0  0  0  0  0  0  0
    7.2156   14.4436   26.9474 H    0  0  0  0  0  0  0  0  0  0  0  0
    5.1199   14.6048   24.7077 H    0  0  0  0  0  0  0  0  0  0  0  0
    4.9660   15.3000   26.3138 H    0  0  0  0  0  0  0  0  0  0  0  0
    3.8419   13.0117   25.8943 H    0  0  0  0  0  0  0  0  0  0  0  0
    4.7789   13.1810   27.3622 H    0  0  0  0  0  0  0  0  0  0  0  0
  9 10  1  0  0  0  0
  8  9  1  0  0  0  0
  7  8  2  0  0  0  0
  6  7  1  0  0  0  0
  5  6  2  0  0  0  0
  4  5  1  0  0  0  0
  3  4  2  0  0  0  0
  2  3  1  0  0  0  0
  1  2  1  0  0  0  0
 24  1  1  0  0  0  0
 25  1  1  0  0  0  0
 26  1  1  0  0  0  0
 27  4  1  0  0  0  0
 28  5  1  0  0  0  0
 29  6  1  0  0  0  0
 21  9  1  0  0  0  0
 30  9  1  0  0  0  0
 11 10  2  0  0  0  0
 12 10  1  0  0  0  0
 13 12  1  0  0  0  0
 14 13  1  0  0  0  0
 31 13  1  0  0  0  0
 32 13  1  0  0  0  0
 15 14  1  0  0  0  0
 33 14  1  0  0  0  0
 34 14  1  0  0  0  0
 16 15  1  0  0  0  0
 35 15  1  0  0  0  0
 36 15  1  0  0  0  0
 17 16  1  0  0  0  0
 20 16  1  0  0  0  0
 37 16  1  0  0  0  0
 18 17  1  0  0  0  0
 19 17  2  0  0  0  0
 38 18  1  0  0  0  0
 39 18  1  0  0  0  0
 40 20  1  0  0  0  0
 41 20  1  0  0  0  0
 22 21  1  0  0  0  0
 42 21  1  0  0  0  0
 43 21  1  0  0  0  0
 23 22  1  0  0  0  0
 44 22  1  0  0  0  0
 45 22  1  0  0  0  0
 46 23  1  0  0  0  0
 47 23  1  0  0  0  0
  8  3  1  0  0  0  0
 20 12  1  0  0  0  0
 23  7  1  0  0  0  0
M  END
>  <FittedScore>
-33.91

$$$$
