A71EV2A-x5850a_best-RMSD
  FITTED

 47 49     0  0  0  0  0  0  0999 V2000
    9.6186    9.0096   23.5632 C    0  0  0  0  0  0  0  0  0  0  0  0
    9.3077   10.6903   24.2060 S    0  0  0  0  0  0  0  0  0  0  0  0
    7.6927   10.7294   25.0153 C    0  0  0  0  0  0  0  0  0  0  0  0
    7.0168    9.5265   25.2963 C    0  0  0  0  0  0  0  0  0  0  0  0
    5.7591    9.5238   25.9020 C    0  0  0  0  0  0  0  0  0  0  0  0
    5.1321   10.7251   26.2226 C    0  0  0  0  0  0  0  0  0  0  0  0
    5.7683   11.9479   25.9510 C    0  0  0  0  0  0  0  0  0  0  0  0
    7.0740   11.9636   25.3777 C    0  0  0  0  0  0  0  0  0  0  0  0
    7.7857   13.3278   25.1524 C    0  0  0  0  0  0  0  0  0  0  0  0
    7.8957   13.6982   23.6468 C    0  0  0  0  0  0  0  0  0  0  0  0
    7.0846   13.2140   22.8689 O    0  0  0  0  0  0  0  0  0  0  0  0
    8.8474   14.6098   23.2082 N    0  0  0  0  0  0  0  0  0  0  0  0
    9.8707   15.3231   24.0611 C    0  0  0  0  0  0  0  0  0  0  0  0
   11.2986   15.3875   23.4583 C    0  0  0  0  0  0  0  0  0  0  0  0
   11.2906   15.9352   22.0105 C    0  0  0  0  0  0  0  0  0  0  0  0
   10.2555   15.1697   21.1386 C    0  0  0  0  0  0  0  0  0  0  0  0
   10.2540   15.7133   19.7073 C    0  0  0  0  0  0  0  0  0  0  0  0
   10.7085   14.8615   18.7672 N    0  0  0  0  0  0  0  0  0  0  0  0
    9.8584   16.8266   19.4032 O    0  0  0  0  0  0  0  0  0  0  0  0
    8.8466   15.1794   21.8162 C    0  0  0  0  0  0  0  0  0  0  0  0
    7.1813   14.5100   25.9826 C    0  0  0  0  0  0  0  0  0  0  0  0
    5.6450   14.5652   25.8647 C    0  0  0  0  0  0  0  0  0  0  0  0
    5.0158   13.2324   26.3283 C    0  0  0  0  0  0  0  0  0  0  0  0
    9.6946    8.3029   24.3900 H    0  0  0  0  0  0  0  0  0  0  0  0
   10.5626    9.0044   23.0170 H    0  0  0  0  0  0  0  0  0  0  0  0
    8.8157    8.7061   22.8875 H    0  0  0  0  0  0  0  0  0  0  0  0
    7.4477    8.5630   25.0577 H    0  0  0  0  0  0  0  0  0  0  0  0
    5.2640    8.5800   26.1180 H    0  0  0  0  0  0  0  0  0  0  0  0
    4.1441   10.7015   26.6813 H    0  0  0  0  0  0  0  0  0  0  0  0
    8.7791   13.1645   25.5734 H    0  0  0  0  0  0  0  0  0  0  0  0
   10.0000   14.8823   25.0456 H    0  0  0  0  0  0  0  0  0  0  0  0
    9.5190   16.3420   24.2479 H    0  0  0  0  0  0  0  0  0  0  0  0
   11.7539   14.3915   23.4756 H    0  0  0  0  0  0  0  0  0  0  0  0
   11.9262   16.0315   24.0811 H    0  0  0  0  0  0  0  0  0  0  0  0
   12.2898   15.8306   21.5773 H    0  0  0  0  0  0  0  0  0  0  0  0
   11.0574   17.0054   22.0248 H    0  0  0  0  0  0  0  0  0  0  0  0
   10.5675   14.1184   21.1205 H    0  0  0  0  0  0  0  0  0  0  0  0
   10.9217   13.8962   19.0084 H    0  0  0  0  0  0  0  0  0  0  0  0
   10.7136   15.1455   17.7931 H    0  0  0  0  0  0  0  0  0  0  0  0
    8.1614   14.6495   21.1509 H    0  0  0  0  0  0  0  0  0  0  0  0
    8.4594   16.2015   21.8659 H    0  0  0  0  0  0  0  0  0  0  0  0
    7.5862   15.4747   25.6801 H    0  0  0  0  0  0  0  0  0  0  0  0
    7.4601   14.3889   27.0338 H    0  0  0  0  0  0  0  0  0  0  0  0
    5.3555   14.7729   24.8306 H    0  0  0  0  0  0  0  0  0  0  0  0
    5.2622   15.3895   26.4718 H    0  0  0  0  0  0  0  0  0  0  0  0
    4.0006   13.1856   25.9212 H    0  0  0  0  0  0  0  0  0  0  0  0
    4.9103   13.2638   27.4161 H    0  0  0  0  0  0  0  0  0  0  0  0
  9 10  1  0  0  0  0
  8  9  1  0  0  0  0
  7  8  2  0  0  0  0
  6  7  1  0  0  0  0
  5  6  2  0  0  0  0
  4  5  1  0  0  0  0
  3  4  2  0  0  0  0
  2  3  1  0  0  0  0
  1  2  1  0  0  0  0
 24  1  1  0  0  0  0
 25  1  1  0  0  0  0
 26  1  1  0  0  0  0
 27  4  1  0  0  0  0
 28  5  1  0  0  0  0
 29  6  1  0  0  0  0
 21  9  1  0  0  0  0
 30  9  1  0  0  0  0
 11 10  2  0  0  0  0
 12 10  1  0  0  0  0
 13 12  1  0  0  0  0
 14 13  1  0  0  0  0
 31 13  1  0  0  0  0
 32 13  1  0  0  0  0
 15 14  1  0  0  0  0
 33 14  1  0  0  0  0
 34 14  1  0  0  0  0
 16 15  1  0  0  0  0
 35 15  1  0  0  0  0
 36 15  1  0  0  0  0
 17 16  1  0  0  0  0
 20 16  1  0  0  0  0
 37 16  1  0  0  0  0
 18 17  1  0  0  0  0
 19 17  2  0  0  0  0
 38 18  1  0  0  0  0
 39 18  1  0  0  0  0
 40 20  1  0  0  0  0
 41 20  1  0  0  0  0
 22 21  1  0  0  0  0
 42 21  1  0  0  0  0
 43 21  1  0  0  0  0
 23 22  1  0  0  0  0
 44 22  1  0  0  0  0
 45 22  1  0  0  0  0
 46 23  1  0  0  0  0
 47 23  1  0  0  0  0
  8  3  1  0  0  0  0
 20 12  1  0  0  0  0
 23  7  1  0  0  0  0
M  END
>  <FittedScore>
-33.29

$$$$
