A71EV2A-x4895b_lowest-energy
  FITTED

 38 39     0  0  0  0  0  0  0999 V2000
    9.7067   10.8791   23.8884 CL   0  0  0  0  0  0  0  0  0  0  0  0
    8.2760   10.8054   24.8673 C    0  0  0  0  0  0  0  0  0  0  0  0
    7.7343    9.5344   25.1039 C    0  0  0  0  0  0  0  0  0  0  0  0
    6.5831    9.4113   25.8915 C    0  0  0  0  0  0  0  0  0  0  0  0
    5.9910   10.5658   26.4106 C    0  0  0  0  0  0  0  0  0  0  0  0
    4.8859   10.4594   27.1601 F    0  0  0  0  0  0  0  0  0  0  0  0
    6.4987   11.7974   26.1839 N    0  0  0  0  0  0  0  0  0  0  0  0
    7.6245   11.9455   25.4214 C    0  0  0  0  0  0  0  0  0  0  0  0
    8.1214   13.3916   25.1690 C    0  0  0  0  0  0  0  0  0  0  0  0
    7.3659   14.5276   25.9395 C    0  0  0  0  0  0  0  0  0  0  0  0
    8.1361   13.7253   23.6600 C    0  0  0  0  0  0  0  0  0  0  0  0
    7.3417   13.1502   22.9304 O    0  0  0  0  0  0  0  0  0  0  0  0
    9.0092   14.6751   23.1520 N    0  0  0  0  0  0  0  0  0  0  0  0
    9.0221   15.0651   21.7034 C    0  0  0  0  0  0  0  0  0  0  0  0
   10.4450   15.2226   21.0793 C    0  0  0  0  0  0  0  0  0  0  0  0
   10.3730   15.6936   19.6212 C    0  0  0  0  0  0  0  0  0  0  0  0
    9.7877   16.6964   19.2562 O    0  0  0  0  0  0  0  0  0  0  0  0
   10.9182   14.8523   18.7190 N    0  0  0  0  0  0  0  0  0  0  0  0
   11.3575   16.1550   21.9219 C    0  0  0  0  0  0  0  0  0  0  0  0
   11.3427   15.7278   23.4089 C    0  0  0  0  0  0  0  0  0  0  0  0
    9.8941   15.6009   23.9467 C    0  0  0  0  0  0  0  0  0  0  0  0
    8.2122    8.6450   24.7028 H    0  0  0  0  0  0  0  0  0  0  0  0
    6.1697    8.4311   26.1145 H    0  0  0  0  0  0  0  0  0  0  0  0
    9.1384   13.3660   25.5674 H    0  0  0  0  0  0  0  0  0  0  0  0
    7.3680   14.3357   27.0141 H    0  0  0  0  0  0  0  0  0  0  0  0
    6.3271   14.6019   25.6064 H    0  0  0  0  0  0  0  0  0  0  0  0
    7.8202   15.5064   25.7965 H    0  0  0  0  0  0  0  0  0  0  0  0
    8.4958   14.3418   21.0773 H    0  0  0  0  0  0  0  0  0  0  0  0
    8.4571   15.9943   21.6001 H    0  0  0  0  0  0  0  0  0  0  0  0
   10.9044   14.2277   21.1020 H    0  0  0  0  0  0  0  0  0  0  0  0
   10.8738   15.0618   17.7143 H    0  0  0  0  0  0  0  0  0  0  0  0
   11.2025   13.9245   19.0215 H    0  0  0  0  0  0  0  0  0  0  0  0
   12.3843   16.1112   21.5478 H    0  0  0  0  0  0  0  0  0  0  0  0
   11.0300   17.1950   21.8371 H    0  0  0  0  0  0  0  0  0  0  0  0
   11.8574   14.7669   23.5336 H    0  0  0  0  0  0  0  0  0  0  0  0
   11.8884   16.4659   24.0053 H    0  0  0  0  0  0  0  0  0  0  0  0
    9.9998   15.3262   24.9924 H    0  0  0  0  0  0  0  0  0  0  0  0
    9.4233   16.5908   23.9625 H    0  0  0  0  0  0  0  0  0  0  0  0
  9 11  1  0  0  0  0
 10  9  1  0  0  0  0
 25 10  1  0  0  0  0
  8  9  1  0  0  0  0
  7  8  2  0  0  0  0
  5  7  1  0  0  0  0
  4  5  2  0  0  0  0
  3  4  1  0  0  0  0
  2  3  2  0  0  0  0
  1  2  1  0  0  0  0
 22  3  1  0  0  0  0
 23  4  1  0  0  0  0
  6  5  1  0  0  0  0
 24  9  1  0  0  0  0
 26 10  1  0  0  0  0
 27 10  1  0  0  0  0
 12 11  2  0  0  0  0
 13 11  1  0  0  0  0
 21 13  1  0  0  0  0
 14 13  1  0  0  0  0
 28 14  1  0  0  0  0
 29 14  1  0  0  0  0
 15 14  1  0  0  0  0
 16 15  1  0  0  0  0
 30 15  1  0  0  0  0
 17 16  2  0  0  0  0
 18 16  1  0  0  0  0
 31 18  1  0  0  0  0
 32 18  1  0  0  0  0
 19 15  1  0  0  0  0
 33 19  1  0  0  0  0
 34 19  1  0  0  0  0
 20 19  1  0  0  0  0
 35 20  1  0  0  0  0
 36 20  1  0  0  0  0
 37 21  1  0  0  0  0
 38 21  1  0  0  0  0
  8  2  1  0  0  0  0
 21 20  1  0  0  0  0
M  END
>  <FittedScore>
-35.44

$$$$
