A71EV2A-x7176a_best-RMSD
  FITTED

 56 58     0  0  0  0  0  0  0999 V2000
    9.4945    8.4763   23.4671 C    0  0  0  0  0  0  0  0  0  0  0  0
    9.4514   10.2490   23.8524 S    0  0  0  0  0  0  0  0  0  0  0  0
    8.0785   10.5229   24.9608 C    0  0  0  0  0  0  0  0  0  0  0  0
    7.3141    9.4484   25.3081 N    0  0  0  0  0  0  0  0  0  0  0  0
    6.2652    9.6602   26.1433 C    0  0  0  0  0  0  0  0  0  0  0  0
    5.8905   10.8751   26.6228 N    0  0  0  0  0  0  0  0  0  0  0  0
    6.6188   11.9614   26.2652 C    0  0  0  0  0  0  0  0  0  0  0  0
    6.1380   13.1716   26.7303 N    0  0  0  0  0  0  0  0  0  0  0  0
    5.3385   14.0437   25.8457 C    0  0  0  0  0  0  0  0  0  0  0  0
    6.7220   13.7837   27.9423 C    0  0  0  0  0  0  0  0  0  0  0  0
    5.8677   13.4734   29.1675 C    0  0  0  0  0  0  0  0  0  0  0  0
    4.8372   14.3566   29.5461 C    0  0  0  0  0  0  0  0  0  0  0  0
    4.0990   14.1274   30.7168 C    0  0  0  0  0  0  0  0  0  0  0  0
    3.1413   15.0142   31.0582 F    0  0  0  0  0  0  0  0  0  0  0  0
    4.3856   13.0170   31.5334 C    0  0  0  0  0  0  0  0  0  0  0  0
    3.7096   12.8377   32.6921 F    0  0  0  0  0  0  0  0  0  0  0  0
    5.3977   12.1159   31.1473 C    0  0  0  0  0  0  0  0  0  0  0  0
    5.6988   11.0486   31.9246 F    0  0  0  0  0  0  0  0  0  0  0  0
    6.1299   12.3384   29.9638 C    0  0  0  0  0  0  0  0  0  0  0  0
    7.7779   11.8245   25.4472 C    0  0  0  0  0  0  0  0  0  0  0  0
    8.6046   13.0515   25.0205 C    0  0  0  0  0  0  0  0  0  0  0  0
    8.1692   13.6370   23.6725 C    0  0  0  0  0  0  0  0  0  0  0  0
    7.3475   13.0412   22.9912 O    0  0  0  0  0  0  0  0  0  0  0  0
    8.8106   14.7687   23.2087 N    0  0  0  0  0  0  0  0  0  0  0  0
    9.7057   15.6823   23.9978 C    0  0  0  0  0  0  0  0  0  0  0  0
   11.1742   15.6210   23.5081 C    0  0  0  0  0  0  0  0  0  0  0  0
   11.2764   15.9717   21.9994 C    0  0  0  0  0  0  0  0  0  0  0  0
   10.2438   15.1585   21.1534 C    0  0  0  0  0  0  0  0  0  0  0  0
   10.2504   15.6314   19.7042 C    0  0  0  0  0  0  0  0  0  0  0  0
   10.7930   14.7829   18.8105 N    0  0  0  0  0  0  0  0  0  0  0  0
    9.7212   16.6623   19.3378 O    0  0  0  0  0  0  0  0  0  0  0  0
    8.8049   15.1867   21.7743 C    0  0  0  0  0  0  0  0  0  0  0  0
   10.3442    8.2570   22.8188 H    0  0  0  0  0  0  0  0  0  0  0  0
    8.5728    8.1909   22.9572 H    0  0  0  0  0  0  0  0  0  0  0  0
    9.5978    7.9004   24.3904 H    0  0  0  0  0  0  0  0  0  0  0  0
    5.6720    8.7976   26.4432 H    0  0  0  0  0  0  0  0  0  0  0  0
    5.0386   13.5394   24.9215 H    0  0  0  0  0  0  0  0  0  0  0  0
    5.8942   14.9320   25.5364 H    0  0  0  0  0  0  0  0  0  0  0  0
    4.4217   14.3735   26.3363 H    0  0  0  0  0  0  0  0  0  0  0  0
    6.8403   14.8662   27.8391 H    0  0  0  0  0  0  0  0  0  0  0  0
    7.7424   13.4243   28.1103 H    0  0  0  0  0  0  0  0  0  0  0  0
    4.6164   15.2378   28.9469 H    0  0  0  0  0  0  0  0  0  0  0  0
    6.9104   11.6335   29.6779 H    0  0  0  0  0  0  0  0  0  0  0  0
    9.6695   12.8146   24.9875 H    0  0  0  0  0  0  0  0  0  0  0  0
    8.5364   13.8094   25.7956 H    0  0  0  0  0  0  0  0  0  0  0  0
    9.6872   15.5102   25.0709 H    0  0  0  0  0  0  0  0  0  0  0  0
    9.3368   16.7102   23.9001 H    0  0  0  0  0  0  0  0  0  0  0  0
   11.5768   14.6183   23.6884 H    0  0  0  0  0  0  0  0  0  0  0  0
   11.7820   16.3199   24.0893 H    0  0  0  0  0  0  0  0  0  0  0  0
   12.2893   15.7474   21.6544 H    0  0  0  0  0  0  0  0  0  0  0  0
   11.1210   17.0486   21.8583 H    0  0  0  0  0  0  0  0  0  0  0  0
   10.5740   14.1134   21.1926 H    0  0  0  0  0  0  0  0  0  0  0  0
   10.7850   15.0274   17.8268 H    0  0  0  0  0  0  0  0  0  0  0  0
   11.0368   13.8312   19.0892 H    0  0  0  0  0  0  0  0  0  0  0  0
    8.1582   14.5499   21.1640 H    0  0  0  0  0  0  0  0  0  0  0  0
    8.3763   16.1922   21.6990 H    0  0  0  0  0  0  0  0  0  0  0  0
 20 21  1  0  0  0  0
  7 20  2  0  0  0  0
  6  7  1  0  0  0  0
  5  6  2  0  0  0  0
  4  5  1  0  0  0  0
  3  4  2  0  0  0  0
  2  3  1  0  0  0  0
  1  2  1  0  0  0  0
 33  1  1  0  0  0  0
 34  1  1  0  0  0  0
 35  1  1  0  0  0  0
 36  5  1  0  0  0  0
  8  7  1  0  0  0  0
  9  8  1  0  0  0  0
 10  8  1  0  0  0  0
 37  9  1  0  0  0  0
 38  9  1  0  0  0  0
 39  9  1  0  0  0  0
 11 10  1  0  0  0  0
 40 10  1  0  0  0  0
 41 10  1  0  0  0  0
 12 11  2  0  0  0  0
 13 12  1  0  0  0  0
 42 12  1  0  0  0  0
 14 13  1  0  0  0  0
 15 13  2  0  0  0  0
 16 15  1  0  0  0  0
 17 15  1  0  0  0  0
 18 17  1  0  0  0  0
 19 17  2  0  0  0  0
 43 19  1  0  0  0  0
 22 21  1  0  0  0  0
 44 21  1  0  0  0  0
 45 21  1  0  0  0  0
 23 22  2  0  0  0  0
 24 22  1  0  0  0  0
 25 24  1  0  0  0  0
 26 25  1  0  0  0  0
 46 25  1  0  0  0  0
 47 25  1  0  0  0  0
 27 26  1  0  0  0  0
 48 26  1  0  0  0  0
 49 26  1  0  0  0  0
 28 27  1  0  0  0  0
 50 27  1  0  0  0  0
 51 27  1  0  0  0  0
 29 28  1  0  0  0  0
 32 28  1  0  0  0  0
 52 28  1  0  0  0  0
 30 29  1  0  0  0  0
 31 29  2  0  0  0  0
 53 30  1  0  0  0  0
 54 30  1  0  0  0  0
 55 32  1  0  0  0  0
 56 32  1  0  0  0  0
 19 11  1  0  0  0  0
 20  3  1  0  0  0  0
 32 24  1  0  0  0  0
M  END
>  <FittedScore>
-33.68

$$$$
