A71EV2A-x6769a_best-RMSD
  FITTED

 50 52     0  0  0  0  0  0  0999 V2000
    9.3929    8.6504   23.4773 C    0  0  0  0  0  0  0  0  0  0  0  0
    9.2476   10.3853   24.0137 S    0  0  0  0  0  0  0  0  0  0  0  0
    7.6494   10.6311   24.8162 C    0  0  0  0  0  0  0  0  0  0  0  0
    6.8192    9.5455   25.1414 C    0  0  0  0  0  0  0  0  0  0  0  0
    5.5596    9.7384   25.7196 C    0  0  0  0  0  0  0  0  0  0  0  0
    5.0564   11.0334   26.0049 C    0  0  0  0  0  0  0  0  0  0  0  0
    3.6693   11.2274   26.5974 C    0  0  0  0  0  0  0  0  0  0  0  0
    3.1670   10.3084   27.5590 C    0  0  0  0  0  0  0  0  0  0  0  0
    1.8637   10.4351   28.0674 C    0  0  0  0  0  0  0  0  0  0  0  0
    1.3859    9.4305   28.9817 C    0  0  0  0  0  0  0  0  0  0  0  0
    1.0206    8.6185   29.6885 N    0  0  0  0  0  0  0  0  0  0  0  0
    1.0335   11.4487   27.7114 N    0  0  0  0  0  0  0  0  0  0  0  0
    1.4876   12.3624   26.8130 C    0  0  0  0  0  0  0  0  0  0  0  0
    2.7662   12.2779   26.2296 C    0  0  0  0  0  0  0  0  0  0  0  0
    3.0728   13.1975   25.2963 F    0  0  0  0  0  0  0  0  0  0  0  0
    5.9238   12.1168   25.7143 C    0  0  0  0  0  0  0  0  0  0  0  0
    7.1996   11.9346   25.1345 C    0  0  0  0  0  0  0  0  0  0  0  0
    8.0489   13.1877   24.8463 C    0  0  0  0  0  0  0  0  0  0  0  0
    8.0639   13.6355   23.3702 C    0  0  0  0  0  0  0  0  0  0  0  0
    7.2955   13.1120   22.5775 O    0  0  0  0  0  0  0  0  0  0  0  0
    8.9038   14.6651   22.9773 N    0  0  0  0  0  0  0  0  0  0  0  0
    9.7095   15.5563   23.8885 C    0  0  0  0  0  0  0  0  0  0  0  0
   11.1887   15.7325   23.4495 C    0  0  0  0  0  0  0  0  0  0  0  0
   11.2898   16.2355   21.9856 C    0  0  0  0  0  0  0  0  0  0  0  0
   10.4631   15.3108   21.0472 C    0  0  0  0  0  0  0  0  0  0  0  0
   10.5267   15.7957   19.5976 C    0  0  0  0  0  0  0  0  0  0  0  0
   10.9516   14.8863   18.6978 N    0  0  0  0  0  0  0  0  0  0  0  0
   10.0717   16.8617   19.2272 O    0  0  0  0  0  0  0  0  0  0  0  0
    8.9928   15.1493   21.5535 C    0  0  0  0  0  0  0  0  0  0  0  0
   10.3285    8.5141   22.9369 H    0  0  0  0  0  0  0  0  0  0  0  0
    8.5599    8.3914   22.8239 H    0  0  0  0  0  0  0  0  0  0  0  0
    9.4113    7.9891   24.3438 H    0  0  0  0  0  0  0  0  0  0  0  0
    7.1204    8.5243   24.9419 H    0  0  0  0  0  0  0  0  0  0  0  0
    4.9574    8.8547   25.9202 H    0  0  0  0  0  0  0  0  0  0  0  0
    3.7837    9.4855   27.9140 H    0  0  0  0  0  0  0  0  0  0  0  0
    0.8269   13.1809   26.5304 H    0  0  0  0  0  0  0  0  0  0  0  0
    5.6055   13.1320   25.9398 H    0  0  0  0  0  0  0  0  0  0  0  0
    9.0688   12.9988   25.1962 H    0  0  0  0  0  0  0  0  0  0  0  0
    7.6973   14.0152   25.4708 H    0  0  0  0  0  0  0  0  0  0  0  0
    9.7277   15.2125   24.9230 H    0  0  0  0  0  0  0  0  0  0  0  0
    9.2357   16.5434   23.9279 H    0  0  0  0  0  0  0  0  0  0  0  0
   11.7140   14.7772   23.5558 H    0  0  0  0  0  0  0  0  0  0  0  0
   11.6813   16.4411   24.1189 H    0  0  0  0  0  0  0  0  0  0  0  0
   12.3379   16.2483   21.6750 H    0  0  0  0  0  0  0  0  0  0  0  0
   10.9287   17.2667   21.9256 H    0  0  0  0  0  0  0  0  0  0  0  0
   10.9162   14.3132   21.1166 H    0  0  0  0  0  0  0  0  0  0  0  0
   10.9476   15.1085   17.7122 H    0  0  0  0  0  0  0  0  0  0  0  0
   11.1361   13.9316   18.9873 H    0  0  0  0  0  0  0  0  0  0  0  0
    8.4846   14.4769   20.8579 H    0  0  0  0  0  0  0  0  0  0  0  0
    8.4692   16.1073   21.4730 H    0  0  0  0  0  0  0  0  0  0  0  0
 17 18  1  0  0  0  0
 16 17  2  0  0  0  0
  6 16  1  0  0  0  0
  5  6  2  0  0  0  0
  4  5  1  0  0  0  0
  3  4  2  0  0  0  0
  2  3  1  0  0  0  0
  1  2  1  0  0  0  0
 30  1  1  0  0  0  0
 31  1  1  0  0  0  0
 32  1  1  0  0  0  0
 33  4  1  0  0  0  0
 34  5  1  0  0  0  0
  7  6  1  0  0  0  0
  8  7  2  0  0  0  0
  9  8  1  0  0  0  0
 35  8  1  0  0  0  0
 10  9  1  0  0  0  0
 12  9  2  0  0  0  0
 11 10  3  0  0  0  0
 13 12  1  0  0  0  0
 14 13  2  0  0  0  0
 36 13  1  0  0  0  0
 15 14  1  0  0  0  0
 37 16  1  0  0  0  0
 19 18  1  0  0  0  0
 38 18  1  0  0  0  0
 39 18  1  0  0  0  0
 20 19  2  0  0  0  0
 21 19  1  0  0  0  0
 22 21  1  0  0  0  0
 23 22  1  0  0  0  0
 40 22  1  0  0  0  0
 41 22  1  0  0  0  0
 24 23  1  0  0  0  0
 42 23  1  0  0  0  0
 43 23  1  0  0  0  0
 25 24  1  0  0  0  0
 44 24  1  0  0  0  0
 45 24  1  0  0  0  0
 26 25  1  0  0  0  0
 29 25  1  0  0  0  0
 46 25  1  0  0  0  0
 27 26  1  0  0  0  0
 28 26  2  0  0  0  0
 47 27  1  0  0  0  0
 48 27  1  0  0  0  0
 49 29  1  0  0  0  0
 50 29  1  0  0  0  0
 14  7  1  0  0  0  0
 17  3  1  0  0  0  0
 29 21  1  0  0  0  0
M  END
>  <FittedScore>
-35.36

$$$$
