A71EV2A-x6769a_lowest-energy
  FITTED

 50 52     0  0  0  0  0  0  0999 V2000
    9.4387    8.7105   23.5258 C    0  0  0  0  0  0  0  0  0  0  0  0
    9.2804   10.4089   24.1492 S    0  0  0  0  0  0  0  0  0  0  0  0
    7.6484   10.6193   24.8882 C    0  0  0  0  0  0  0  0  0  0  0  0
    6.8565    9.5077   25.2200 C    0  0  0  0  0  0  0  0  0  0  0  0
    5.5810    9.6584   25.7745 C    0  0  0  0  0  0  0  0  0  0  0  0
    5.0235   10.9350   26.0328 C    0  0  0  0  0  0  0  0  0  0  0  0
    3.6393   11.0766   26.6421 C    0  0  0  0  0  0  0  0  0  0  0  0
    3.1976   10.1757   27.6508 C    0  0  0  0  0  0  0  0  0  0  0  0
    1.9008   10.2725   28.1883 C    0  0  0  0  0  0  0  0  0  0  0  0
    1.4670    9.3267   29.1819 C    0  0  0  0  0  0  0  0  0  0  0  0
    1.1243    8.5732   29.9620 N    0  0  0  0  0  0  0  0  0  0  0  0
    1.0201   11.2286   27.8008 N    0  0  0  0  0  0  0  0  0  0  0  0
    1.4128   12.1169   26.8545 C    0  0  0  0  0  0  0  0  0  0  0  0
    2.6838   12.0659   26.2536 C    0  0  0  0  0  0  0  0  0  0  0  0
    2.9208   12.9553   25.2756 F    0  0  0  0  0  0  0  0  0  0  0  0
    5.8428   12.0502   25.7134 C    0  0  0  0  0  0  0  0  0  0  0  0
    7.1344   11.9128   25.1588 C    0  0  0  0  0  0  0  0  0  0  0  0
    7.9523   13.1919   24.8967 C    0  0  0  0  0  0  0  0  0  0  0  0
    8.0626   13.6112   23.4167 C    0  0  0  0  0  0  0  0  0  0  0  0
    7.2667   13.1464   22.6157 O    0  0  0  0  0  0  0  0  0  0  0  0
    8.9814   14.5738   23.0297 N    0  0  0  0  0  0  0  0  0  0  0  0
    9.7827   15.4511   23.9584 C    0  0  0  0  0  0  0  0  0  0  0  0
   11.2506   15.7023   23.5184 C    0  0  0  0  0  0  0  0  0  0  0  0
   11.3353   16.2457   22.0706 C    0  0  0  0  0  0  0  0  0  0  0  0
   10.5569   15.3044   21.1093 C    0  0  0  0  0  0  0  0  0  0  0  0
   10.5656   15.8257   19.6698 C    0  0  0  0  0  0  0  0  0  0  0  0
   10.8936   14.9163   18.7343 N    0  0  0  0  0  0  0  0  0  0  0  0
   10.1143   16.9060   19.3378 O    0  0  0  0  0  0  0  0  0  0  0  0
    9.0970   15.0496   21.6049 C    0  0  0  0  0  0  0  0  0  0  0  0
    8.6186    8.4860   22.8421 H    0  0  0  0  0  0  0  0  0  0  0  0
    9.4422    8.0042   24.3559 H    0  0  0  0  0  0  0  0  0  0  0  0
   10.3811    8.6093   22.9874 H    0  0  0  0  0  0  0  0  0  0  0  0
    7.2098    8.4955   25.0574 H    0  0  0  0  0  0  0  0  0  0  0  0
    5.0160    8.7534   25.9914 H    0  0  0  0  0  0  0  0  0  0  0  0
    3.8558    9.3929   28.0233 H    0  0  0  0  0  0  0  0  0  0  0  0
    0.7079   12.8847   26.5402 H    0  0  0  0  0  0  0  0  0  0  0  0
    5.4725   13.0540   25.9090 H    0  0  0  0  0  0  0  0  0  0  0  0
    8.9384   13.0319   25.3395 H    0  0  0  0  0  0  0  0  0  0  0  0
    7.5283   14.0316   25.4554 H    0  0  0  0  0  0  0  0  0  0  0  0
    9.8470   15.0554   24.9697 H    0  0  0  0  0  0  0  0  0  0  0  0
    9.2721   16.4147   24.0538 H    0  0  0  0  0  0  0  0  0  0  0  0
   11.8200   14.7714   23.6010 H    0  0  0  0  0  0  0  0  0  0  0  0
   11.7149   16.4171   24.2016 H    0  0  0  0  0  0  0  0  0  0  0  0
   12.3828   16.3110   21.7623 H    0  0  0  0  0  0  0  0  0  0  0  0
   10.9332   17.2642   22.0310 H    0  0  0  0  0  0  0  0  0  0  0  0
   11.0702   14.3332   21.1440 H    0  0  0  0  0  0  0  0  0  0  0  0
   11.0585   13.9523   19.0032 H    0  0  0  0  0  0  0  0  0  0  0  0
   10.8124   15.1536   17.7553 H    0  0  0  0  0  0  0  0  0  0  0  0
    8.6678   14.3273   20.9047 H    0  0  0  0  0  0  0  0  0  0  0  0
    8.5059   15.9650   21.4939 H    0  0  0  0  0  0  0  0  0  0  0  0
 17 18  1  0  0  0  0
 16 17  2  0  0  0  0
  6 16  1  0  0  0  0
  5  6  2  0  0  0  0
  4  5  1  0  0  0  0
  3  4  2  0  0  0  0
  2  3  1  0  0  0  0
  1  2  1  0  0  0  0
 30  1  1  0  0  0  0
 31  1  1  0  0  0  0
 32  1  1  0  0  0  0
 33  4  1  0  0  0  0
 34  5  1  0  0  0  0
  7  6  1  0  0  0  0
  8  7  2  0  0  0  0
  9  8  1  0  0  0  0
 35  8  1  0  0  0  0
 10  9  1  0  0  0  0
 12  9  2  0  0  0  0
 11 10  3  0  0  0  0
 13 12  1  0  0  0  0
 14 13  2  0  0  0  0
 36 13  1  0  0  0  0
 15 14  1  0  0  0  0
 37 16  1  0  0  0  0
 19 18  1  0  0  0  0
 38 18  1  0  0  0  0
 39 18  1  0  0  0  0
 20 19  2  0  0  0  0
 21 19  1  0  0  0  0
 22 21  1  0  0  0  0
 23 22  1  0  0  0  0
 40 22  1  0  0  0  0
 41 22  1  0  0  0  0
 24 23  1  0  0  0  0
 42 23  1  0  0  0  0
 43 23  1  0  0  0  0
 25 24  1  0  0  0  0
 44 24  1  0  0  0  0
 45 24  1  0  0  0  0
 26 25  1  0  0  0  0
 29 25  1  0  0  0  0
 46 25  1  0  0  0  0
 27 26  1  0  0  0  0
 28 26  2  0  0  0  0
 47 27  1  0  0  0  0
 48 27  1  0  0  0  0
 49 29  1  0  0  0  0
 50 29  1  0  0  0  0
 14  7  1  0  0  0  0
 17  3  1  0  0  0  0
 29 21  1  0  0  0  0
M  END
>  <FittedScore>
-36.38

$$$$
