A71EV2A-x4752a_best-RMSD
  FITTED

 40 42     0  0  0  0  0  0  0999 V2000
    6.9176   13.2532   22.4204 O    0  0  0  0  0  0  0  0  0  0  0  0
    6.6547   13.7097   23.5196 C    0  0  0  0  0  0  0  0  0  0  0  0
    7.4093   13.1888   24.7611 C    0  0  0  0  0  0  0  0  0  0  0  0
    7.9306   11.7457   24.6329 C    0  0  0  0  0  0  0  0  0  0  0  0
    7.2100   10.7052   25.2603 C    0  0  0  0  0  0  0  0  0  0  0  0
    7.5880    9.3664   25.0951 C    0  0  0  0  0  0  0  0  0  0  0  0
    8.7000    9.0455   24.3113 C    0  0  0  0  0  0  0  0  0  0  0  0
    9.4516   10.0653   23.7191 C    0  0  0  0  0  0  0  0  0  0  0  0
    9.0832   11.4123   23.8801 C    0  0  0  0  0  0  0  0  0  0  0  0
   10.0740   12.6470   23.0654 S    0  0  0  0  0  0  0  0  0  0  0  0
   11.2116   13.1927   24.3804 C    0  0  0  0  0  0  0  0  0  0  0  0
    5.6157   14.6027   23.6655 N    0  0  0  0  0  0  0  0  0  0  0  0
    4.6275   14.8891   22.5671 C    0  0  0  0  0  0  0  0  0  0  0  0
    3.1537   14.9282   23.0063 C    0  0  0  0  0  0  0  0  0  0  0  0
    2.8176   14.9836   24.3840 C    0  0  0  0  0  0  0  0  0  0  0  0
    3.9116   14.9727   25.4482 C    0  0  0  0  0  0  0  0  0  0  0  0
    5.2892   15.3779   24.8923 C    0  0  0  0  0  0  0  0  0  0  0  0
    2.1004   14.9600   22.0561 C    0  0  0  0  0  0  0  0  0  0  0  0
    2.3324   14.9724   20.7023 O    0  0  0  0  0  0  0  0  0  0  0  0
    0.7761   15.0382   22.5155 C    0  0  0  0  0  0  0  0  0  0  0  0
    0.5298   15.0940   23.8970 C    0  0  0  0  0  0  0  0  0  0  0  0
    1.5296   15.0591   24.8163 N    0  0  0  0  0  0  0  0  0  0  0  0
    8.2286   13.8715   24.9945 H    0  0  0  0  0  0  0  0  0  0  0  0
    6.7678   13.2208   25.6417 H    0  0  0  0  0  0  0  0  0  0  0  0
    6.3369   10.9242   25.8713 H    0  0  0  0  0  0  0  0  0  0  0  0
    7.0088    8.5774   25.5702 H    0  0  0  0  0  0  0  0  0  0  0  0
    8.9850    8.0064   24.1675 H    0  0  0  0  0  0  0  0  0  0  0  0
   10.3208    9.8053   23.1179 H    0  0  0  0  0  0  0  0  0  0  0  0
   10.6494   13.5665   25.2377 H    0  0  0  0  0  0  0  0  0  0  0  0
   11.8324   14.0004   23.9885 H    0  0  0  0  0  0  0  0  0  0  0  0
   11.8495   12.3662   24.6953 H    0  0  0  0  0  0  0  0  0  0  0  0
    4.8825   15.8512   22.1133 H    0  0  0  0  0  0  0  0  0  0  0  0
    4.7096   14.1499   21.7650 H    0  0  0  0  0  0  0  0  0  0  0  0
    3.6558   15.6550   26.2629 H    0  0  0  0  0  0  0  0  0  0  0  0
    3.9721   13.9721   25.8902 H    0  0  0  0  0  0  0  0  0  0  0  0
    5.2681   16.4446   24.6372 H    0  0  0  0  0  0  0  0  0  0  0  0
    6.0425   15.3184   25.6737 H    0  0  0  0  0  0  0  0  0  0  0  0
    1.5178   14.7515   20.2216 H    0  0  0  0  0  0  0  0  0  0  0  0
   -0.0520   15.0895   21.8153 H    0  0  0  0  0  0  0  0  0  0  0  0
   -0.4956   15.1594   24.2440 H    0  0  0  0  0  0  0  0  0  0  0  0
  2  1  2  0  0  0  0
  3  2  1  0  0  0  0
 23  3  1  0  0  0  0
 24  3  1  0  0  0  0
  4  3  1  0  0  0  0
  5  4  1  0  0  0  0
 25  5  1  0  0  0  0
  6  5  2  0  0  0  0
 26  6  1  0  0  0  0
  7  6  1  0  0  0  0
 27  7  1  0  0  0  0
  8  7  2  0  0  0  0
 28  8  1  0  0  0  0
  9  8  1  0  0  0  0
 10  9  1  0  0  0  0
 11 10  1  0  0  0  0
 29 11  1  0  0  0  0
 30 11  1  0  0  0  0
 31 11  1  0  0  0  0
 12  2  1  0  0  0  0
 17 12  1  0  0  0  0
 13 12  1  0  0  0  0
 32 13  1  0  0  0  0
 33 13  1  0  0  0  0
 14 13  1  0  0  0  0
 15 14  1  0  0  0  0
 22 15  2  0  0  0  0
 16 15  1  0  0  0  0
 34 16  1  0  0  0  0
 35 16  1  0  0  0  0
 36 17  1  0  0  0  0
 37 17  1  0  0  0  0
 18 14  2  0  0  0  0
 19 18  1  0  0  0  0
 38 19  1  0  0  0  0
 20 18  1  0  0  0  0
 39 20  1  0  0  0  0
 21 20  2  0  0  0  0
 40 21  1  0  0  0  0
  9  4  2  0  0  0  0
 17 16  1  0  0  0  0
 22 21  1  0  0  0  0
M  END
>  <FittedScore>
-26.77

$$$$
