A71EV2A-x4321b_lowest-energy
  FITTED

 40 41     0  0  0  0  0  0  0999 V2000
    9.9131   16.8969   19.2406 O    0  0  0  0  0  0  0  0  0  0  0  0
   10.3573   15.8259   19.6173 C    0  0  0  0  0  0  0  0  0  0  0  0
   10.6600   14.8675   18.7279 N    0  0  0  0  0  0  0  0  0  0  0  0
   10.3775   15.3654   21.0707 C    0  0  0  0  0  0  0  0  0  0  0  0
   11.2504   16.3197   21.9349 C    0  0  0  0  0  0  0  0  0  0  0  0
   11.1597   15.9338   23.4311 C    0  0  0  0  0  0  0  0  0  0  0  0
    9.6798   15.7814   23.8889 C    0  0  0  0  0  0  0  0  0  0  0  0
    8.9264   15.1874   21.6292 C    0  0  0  0  0  0  0  0  0  0  0  0
    8.8886   14.7901   23.0764 N    0  0  0  0  0  0  0  0  0  0  0  0
    8.1402   13.7335   23.5700 C    0  0  0  0  0  0  0  0  0  0  0  0
    7.3953   13.0867   22.8469 O    0  0  0  0  0  0  0  0  0  0  0  0
    8.2173   13.3949   25.0702 C    0  0  0  0  0  0  0  0  0  0  0  0
    7.4296   12.1491   25.5098 C    0  0  0  0  0  0  0  0  0  0  0  0
    7.8816   10.8193   25.2637 C    0  0  0  0  0  0  0  0  0  0  0  0
    9.2321   10.5566   24.5512 C    0  0  0  0  0  0  0  0  0  0  0  0
    9.4119    9.1925   24.0241 C    0  0  0  0  0  0  0  0  0  0  0  0
    9.5475    8.1208   23.6750 N    0  0  0  0  0  0  0  0  0  0  0  0
    6.2094   12.3576   26.1882 C    0  0  0  0  0  0  0  0  0  0  0  0
    5.4381   11.2813   26.6359 C    0  0  0  0  0  0  0  0  0  0  0  0
    5.8732    9.9752   26.4018 C    0  0  0  0  0  0  0  0  0  0  0  0
    7.0756    9.7483   25.7241 C    0  0  0  0  0  0  0  0  0  0  0  0
   10.7996   13.9121   19.0419 H    0  0  0  0  0  0  0  0  0  0  0  0
   10.6485   15.0706   17.7339 H    0  0  0  0  0  0  0  0  0  0  0  0
   10.8549   14.3803   21.1376 H    0  0  0  0  0  0  0  0  0  0  0  0
   12.2925   16.2672   21.6059 H    0  0  0  0  0  0  0  0  0  0  0  0
   10.9349   17.3615   21.8134 H    0  0  0  0  0  0  0  0  0  0  0  0
   11.6978   14.9960   23.6048 H    0  0  0  0  0  0  0  0  0  0  0  0
   11.6527   16.7018   24.0358 H    0  0  0  0  0  0  0  0  0  0  0  0
    9.7006   15.5642   24.9536 H    0  0  0  0  0  0  0  0  0  0  0  0
    9.1857   16.7563   23.8176 H    0  0  0  0  0  0  0  0  0  0  0  0
    8.4255   14.4541   20.9913 H    0  0  0  0  0  0  0  0  0  0  0  0
    8.3536   16.1124   21.5027 H    0  0  0  0  0  0  0  0  0  0  0  0
    9.2607   13.2664   25.3698 H    0  0  0  0  0  0  0  0  0  0  0  0
    7.8585   14.2627   25.6300 H    0  0  0  0  0  0  0  0  0  0  0  0
    9.3582   11.2222   23.6958 H    0  0  0  0  0  0  0  0  0  0  0  0
   10.0519   10.7655   25.2386 H    0  0  0  0  0  0  0  0  0  0  0  0
    5.8446   13.3660   26.3716 H    0  0  0  0  0  0  0  0  0  0  0  0
    4.4982   11.4613   27.1517 H    0  0  0  0  0  0  0  0  0  0  0  0
    5.2674    9.1333   26.7347 H    0  0  0  0  0  0  0  0  0  0  0  0
    7.3657    8.7141   25.5680 H    0  0  0  0  0  0  0  0  0  0  0  0
  9 10  1  0  0  0  0
  7  9  1  0  0  0  0
  6  7  1  0  0  0  0
  5  6  1  0  0  0  0
  4  5  1  0  0  0  0
  2  4  1  0  0  0  0
  1  2  2  0  0  0  0
  3  2  1  0  0  0  0
 22  3  1  0  0  0  0
 23  3  1  0  0  0  0
 24  4  1  0  0  0  0
 25  5  1  0  0  0  0
 26  5  1  0  0  0  0
 27  6  1  0  0  0  0
 28  6  1  0  0  0  0
 29  7  1  0  0  0  0
 30  7  1  0  0  0  0
  8  4  1  0  0  0  0
 31  8  1  0  0  0  0
 32  8  1  0  0  0  0
 11 10  2  0  0  0  0
 12 10  1  0  0  0  0
 33 12  1  0  0  0  0
 34 12  1  0  0  0  0
 13 12  1  0  0  0  0
 14 13  1  0  0  0  0
 21 14  2  0  0  0  0
 15 14  1  0  0  0  0
 35 15  1  0  0  0  0
 36 15  1  0  0  0  0
 16 15  1  0  0  0  0
 17 16  3  0  0  0  0
 18 13  2  0  0  0  0
 37 18  1  0  0  0  0
 19 18  1  0  0  0  0
 38 19  1  0  0  0  0
 20 19  2  0  0  0  0
 39 20  1  0  0  0  0
 40 21  1  0  0  0  0
  9  8  1  0  0  0  0
 21 20  1  0  0  0  0
M  END
>  <FittedScore>
-34.01

$$$$
