A71EV2A-x4554a_best-RMSD
  FITTED

 43 44     0  0  0  0  0  0  0999 V2000
    9.8974   16.8515   18.8469 O    0  0  0  0  0  0  0  0  0  0  0  0
   10.3019   15.7932   19.2923 C    0  0  0  0  0  0  0  0  0  0  0  0
   10.7343   14.8414   18.4430 N    0  0  0  0  0  0  0  0  0  0  0  0
   10.2920   15.4065   20.7751 C    0  0  0  0  0  0  0  0  0  0  0  0
   11.1548   16.3640   21.6474 C    0  0  0  0  0  0  0  0  0  0  0  0
   11.1124   15.9057   23.1291 C    0  0  0  0  0  0  0  0  0  0  0  0
    9.6596   15.7142   23.6549 C    0  0  0  0  0  0  0  0  0  0  0  0
    8.8448   15.2771   21.3460 C    0  0  0  0  0  0  0  0  0  0  0  0
    8.7748   14.8494   22.7869 N    0  0  0  0  0  0  0  0  0  0  0  0
    7.9084   13.8569   23.2227 C    0  0  0  0  0  0  0  0  0  0  0  0
    7.2512   13.1622   22.4648 O    0  0  0  0  0  0  0  0  0  0  0  0
    7.8693   13.6047   24.5590 N    0  0  0  0  0  0  0  0  0  0  0  0
    7.3841   12.3949   25.1788 C    0  0  0  0  0  0  0  0  0  0  0  0
    6.2357   12.4353   26.0014 C    0  0  0  0  0  0  0  0  0  0  0  0
    5.5809   13.6287   26.2451 O    0  0  0  0  0  0  0  0  0  0  0  0
    4.2382   13.8736   25.7680 C    0  0  0  0  0  0  0  0  0  0  0  0
    8.0471   11.1614   24.9556 C    0  0  0  0  0  0  0  0  0  0  0  0
    9.5601   11.0974   23.9870 S    0  0  0  0  0  0  0  0  0  0  0  0
    9.6509    9.4436   23.2607 C    0  0  0  0  0  0  0  0  0  0  0  0
    7.5263    9.9936   25.5485 C    0  0  0  0  0  0  0  0  0  0  0  0
    6.3929   10.0396   26.3647 C    0  0  0  0  0  0  0  0  0  0  0  0
    5.7528   11.2564   26.5970 C    0  0  0  0  0  0  0  0  0  0  0  0
   10.9953   13.9282   18.7958 H    0  0  0  0  0  0  0  0  0  0  0  0
   10.6383   14.9788   17.4452 H    0  0  0  0  0  0  0  0  0  0  0  0
   10.7452   14.4115   20.8763 H    0  0  0  0  0  0  0  0  0  0  0  0
   12.1906   16.3547   21.2984 H    0  0  0  0  0  0  0  0  0  0  0  0
   10.8005   17.3969   21.5618 H    0  0  0  0  0  0  0  0  0  0  0  0
   11.6531   14.9596   23.2288 H    0  0  0  0  0  0  0  0  0  0  0  0
   11.6418   16.6349   23.7502 H    0  0  0  0  0  0  0  0  0  0  0  0
    9.7595   15.3204   24.6675 H    0  0  0  0  0  0  0  0  0  0  0  0
    9.1852   16.6937   23.7667 H    0  0  0  0  0  0  0  0  0  0  0  0
    8.3157   14.5832   20.6873 H    0  0  0  0  0  0  0  0  0  0  0  0
    8.3125   16.2283   21.2497 H    0  0  0  0  0  0  0  0  0  0  0  0
    8.3304   14.2378   25.1965 H    0  0  0  0  0  0  0  0  0  0  0  0
    3.9397   14.8846   26.0506 H    0  0  0  0  0  0  0  0  0  0  0  0
    3.5420   13.1645   26.2203 H    0  0  0  0  0  0  0  0  0  0  0  0
    4.1988   13.7743   24.6803 H    0  0  0  0  0  0  0  0  0  0  0  0
    9.8778    8.7053   24.0314 H    0  0  0  0  0  0  0  0  0  0  0  0
   10.4588    9.4468   22.5268 H    0  0  0  0  0  0  0  0  0  0  0  0
    8.7064    9.1980   22.7680 H    0  0  0  0  0  0  0  0  0  0  0  0
    8.0186    9.0362   25.4255 H    0  0  0  0  0  0  0  0  0  0  0  0
    6.0249    9.1310   26.8356 H    0  0  0  0  0  0  0  0  0  0  0  0
    4.8828   11.2840   27.2478 H    0  0  0  0  0  0  0  0  0  0  0  0
  9 10  1  0  0  0  0
  7  9  1  0  0  0  0
  6  7  1  0  0  0  0
  5  6  1  0  0  0  0
  4  5  1  0  0  0  0
  2  4  1  0  0  0  0
  1  2  2  0  0  0  0
  3  2  1  0  0  0  0
 23  3  1  0  0  0  0
 24  3  1  0  0  0  0
 25  4  1  0  0  0  0
 26  5  1  0  0  0  0
 27  5  1  0  0  0  0
 28  6  1  0  0  0  0
 29  6  1  0  0  0  0
 30  7  1  0  0  0  0
 31  7  1  0  0  0  0
  8  4  1  0  0  0  0
 32  8  1  0  0  0  0
 33  8  1  0  0  0  0
 11 10  2  0  0  0  0
 12 10  1  0  0  0  0
 34 12  1  0  0  0  0
 13 12  1  0  0  0  0
 14 13  1  0  0  0  0
 22 14  2  0  0  0  0
 15 14  1  0  0  0  0
 16 15  1  0  0  0  0
 35 16  1  0  0  0  0
 36 16  1  0  0  0  0
 37 16  1  0  0  0  0
 17 13  2  0  0  0  0
 18 17  1  0  0  0  0
 19 18  1  0  0  0  0
 38 19  1  0  0  0  0
 39 19  1  0  0  0  0
 40 19  1  0  0  0  0
 20 17  1  0  0  0  0
 41 20  1  0  0  0  0
 21 20  2  0  0  0  0
 42 21  1  0  0  0  0
 43 22  1  0  0  0  0
  9  8  1  0  0  0  0
 22 21  1  0  0  0  0
M  END
>  <FittedScore>
-27.03

$$$$
