A71EV2A-x4554a_lowest-energy
  FITTED

 43 44     0  0  0  0  0  0  0999 V2000
    9.9655   16.7901   18.8241 O    0  0  0  0  0  0  0  0  0  0  0  0
   10.4250   15.7595   19.2794 C    0  0  0  0  0  0  0  0  0  0  0  0
   10.8996   14.8248   18.4368 N    0  0  0  0  0  0  0  0  0  0  0  0
   10.3857   15.3559   20.7598 C    0  0  0  0  0  0  0  0  0  0  0  0
   11.3338   16.2363   21.6143 C    0  0  0  0  0  0  0  0  0  0  0  0
   11.2701   15.8146   23.1089 C    0  0  0  0  0  0  0  0  0  0  0  0
    9.8063   15.7422   23.6368 C    0  0  0  0  0  0  0  0  0  0  0  0
    8.9392   15.3439   21.3574 C    0  0  0  0  0  0  0  0  0  0  0  0
    8.8984   14.8806   22.7915 N    0  0  0  0  0  0  0  0  0  0  0  0
    8.1315   13.8143   23.2215 C    0  0  0  0  0  0  0  0  0  0  0  0
    7.3556   13.2220   22.4905 O    0  0  0  0  0  0  0  0  0  0  0  0
    8.2366   13.4601   24.5358 N    0  0  0  0  0  0  0  0  0  0  0  0
    7.6591   12.3184   25.2048 C    0  0  0  0  0  0  0  0  0  0  0  0
    7.9036   10.9973   24.7458 C    0  0  0  0  0  0  0  0  0  0  0  0
    8.7471   10.8057   23.6539 O    0  0  0  0  0  0  0  0  0  0  0  0
    9.5908    9.6570   23.4305 C    0  0  0  0  0  0  0  0  0  0  0  0
    6.8436   12.5210   26.3443 C    0  0  0  0  0  0  0  0  0  0  0  0
    6.4528   14.1472   26.9640 S    0  0  0  0  0  0  0  0  0  0  0  0
    5.1756   14.6341   25.7493 C    0  0  0  0  0  0  0  0  0  0  0  0
    6.2741   11.4218   27.0040 C    0  0  0  0  0  0  0  0  0  0  0  0
    6.4873   10.1236   26.5292 C    0  0  0  0  0  0  0  0  0  0  0  0
    7.2884    9.9106   25.4018 C    0  0  0  0  0  0  0  0  0  0  0  0
   10.8732   14.9869   17.4363 H    0  0  0  0  0  0  0  0  0  0  0  0
   11.1228   13.8958   18.7931 H    0  0  0  0  0  0  0  0  0  0  0  0
   10.7528   14.3261   20.8518 H    0  0  0  0  0  0  0  0  0  0  0  0
   12.3608   16.1296   21.2533 H    0  0  0  0  0  0  0  0  0  0  0  0
   11.0634   17.2949   21.5115 H    0  0  0  0  0  0  0  0  0  0  0  0
   11.7520   14.8400   23.2368 H    0  0  0  0  0  0  0  0  0  0  0  0
   11.8424   16.5292   23.7064 H    0  0  0  0  0  0  0  0  0  0  0  0
    9.8577   15.4261   24.6800 H    0  0  0  0  0  0  0  0  0  0  0  0
    9.3894   16.7538   23.6735 H    0  0  0  0  0  0  0  0  0  0  0  0
    8.3174   14.7274   20.7034 H    0  0  0  0  0  0  0  0  0  0  0  0
    8.5017   16.3490   21.3041 H    0  0  0  0  0  0  0  0  0  0  0  0
    8.6647   14.1169   25.1751 H    0  0  0  0  0  0  0  0  0  0  0  0
    8.9953    8.7796   23.1618 H    0  0  0  0  0  0  0  0  0  0  0  0
   10.1871    9.4425   24.3216 H    0  0  0  0  0  0  0  0  0  0  0  0
   10.2695    9.8846   22.6070 H    0  0  0  0  0  0  0  0  0  0  0  0
    4.3837   13.8812   25.7273 H    0  0  0  0  0  0  0  0  0  0  0  0
    5.6118   14.7147   24.7514 H    0  0  0  0  0  0  0  0  0  0  0  0
    4.7454   15.5972   26.0284 H    0  0  0  0  0  0  0  0  0  0  0  0
    5.6485   11.5708   27.8792 H    0  0  0  0  0  0  0  0  0  0  0  0
    6.0340    9.2760   27.0388 H    0  0  0  0  0  0  0  0  0  0  0  0
    7.4377    8.8950   25.0561 H    0  0  0  0  0  0  0  0  0  0  0  0
  9 10  1  0  0  0  0
  7  9  1  0  0  0  0
  6  7  1  0  0  0  0
  5  6  1  0  0  0  0
  4  5  1  0  0  0  0
  2  4  1  0  0  0  0
  1  2  2  0  0  0  0
  3  2  1  0  0  0  0
 23  3  1  0  0  0  0
 24  3  1  0  0  0  0
 25  4  1  0  0  0  0
 26  5  1  0  0  0  0
 27  5  1  0  0  0  0
 28  6  1  0  0  0  0
 29  6  1  0  0  0  0
 30  7  1  0  0  0  0
 31  7  1  0  0  0  0
  8  4  1  0  0  0  0
 32  8  1  0  0  0  0
 33  8  1  0  0  0  0
 11 10  2  0  0  0  0
 12 10  1  0  0  0  0
 34 12  1  0  0  0  0
 13 12  1  0  0  0  0
 14 13  1  0  0  0  0
 22 14  2  0  0  0  0
 15 14  1  0  0  0  0
 16 15  1  0  0  0  0
 35 16  1  0  0  0  0
 36 16  1  0  0  0  0
 37 16  1  0  0  0  0
 17 13  2  0  0  0  0
 18 17  1  0  0  0  0
 19 18  1  0  0  0  0
 38 19  1  0  0  0  0
 39 19  1  0  0  0  0
 40 19  1  0  0  0  0
 20 17  1  0  0  0  0
 41 20  1  0  0  0  0
 21 20  2  0  0  0  0
 42 21  1  0  0  0  0
 43 22  1  0  0  0  0
  9  8  1  0  0  0  0
 22 21  1  0  0  0  0
M  END
>  <FittedScore>
-27.86

$$$$
