A71EV2A-x6844a_lowest-energy
  FITTED

 48 49     0  0  0  0  0  0  0999 V2000
    9.6011   15.9033   29.8091 C    0  0  0  0  0  0  0  0  0  0  0  0
    9.6515   16.6449   28.4499 C    0  0  0  0  0  0  0  0  0  0  0  0
    8.8091   15.9865   27.4487 O    0  0  0  0  0  0  0  0  0  0  0  0
    9.1712   14.8192   26.8411 C    0  0  0  0  0  0  0  0  0  0  0  0
   10.2480   14.2698   27.0001 O    0  0  0  0  0  0  0  0  0  0  0  0
    8.2521   14.3782   25.9490 N    0  0  0  0  0  0  0  0  0  0  0  0
    8.3571   13.2099   25.0417 C    0  0  0  0  0  0  0  0  0  0  0  0
    8.0141   13.6137   23.5916 C    0  0  0  0  0  0  0  0  0  0  0  0
    7.0630   13.1072   23.0104 O    0  0  0  0  0  0  0  0  0  0  0  0
    8.8604   14.4642   22.9191 N    0  0  0  0  0  0  0  0  0  0  0  0
   10.0281   15.2317   23.4366 C    0  0  0  0  0  0  0  0  0  0  0  0
   10.7622   15.8795   22.2486 C    0  0  0  0  0  0  0  0  0  0  0  0
   10.2551   15.0549   21.0643 C    0  0  0  0  0  0  0  0  0  0  0  0
   10.3263   15.6903   19.6855 C    0  0  0  0  0  0  0  0  0  0  0  0
   10.6854   14.8576   18.6887 N    0  0  0  0  0  0  0  0  0  0  0  0
    9.8322   16.7693   19.4335 O    0  0  0  0  0  0  0  0  0  0  0  0
    8.8224   14.6822   21.4665 C    0  0  0  0  0  0  0  0  0  0  0  0
    7.5110   12.0011   25.5377 C    0  0  0  0  0  0  0  0  0  0  0  0
    6.3576   12.2179   26.3351 C    0  0  0  0  0  0  0  0  0  0  0  0
    5.5581   11.1538   26.7656 C    0  0  0  0  0  0  0  0  0  0  0  0
    5.8671    9.8536   26.3730 C    0  0  0  0  0  0  0  0  0  0  0  0
    6.9645    9.6167   25.5410 C    0  0  0  0  0  0  0  0  0  0  0  0
    7.8059   10.6689   25.1169 C    0  0  0  0  0  0  0  0  0  0  0  0
    9.2012   10.3306   24.0208 S    0  0  0  0  0  0  0  0  0  0  0  0
    9.3255    8.5376   23.7323 C    0  0  0  0  0  0  0  0  0  0  0  0
   10.1221   14.9442   29.7632 H    0  0  0  0  0  0  0  0  0  0  0  0
    8.5694   15.7243   30.1242 H    0  0  0  0  0  0  0  0  0  0  0  0
   10.0880   16.5034   30.5812 H    0  0  0  0  0  0  0  0  0  0  0  0
   10.6813   16.7304   28.0896 H    0  0  0  0  0  0  0  0  0  0  0  0
    9.2712   17.6585   28.5852 H    0  0  0  0  0  0  0  0  0  0  0  0
    7.3866   14.9008   25.8871 H    0  0  0  0  0  0  0  0  0  0  0  0
    9.4014   12.8993   25.0354 H    0  0  0  0  0  0  0  0  0  0  0  0
   10.7166   14.5757   23.9746 H    0  0  0  0  0  0  0  0  0  0  0  0
    9.6960   16.0150   24.1235 H    0  0  0  0  0  0  0  0  0  0  0  0
   11.8475   15.8031   22.3589 H    0  0  0  0  0  0  0  0  0  0  0  0
   10.4895   16.9370   22.1549 H    0  0  0  0  0  0  0  0  0  0  0  0
   10.8424   14.1280   21.0623 H    0  0  0  0  0  0  0  0  0  0  0  0
   10.6750   15.1851   17.7309 H    0  0  0  0  0  0  0  0  0  0  0  0
   10.8747   13.8728   18.8717 H    0  0  0  0  0  0  0  0  0  0  0  0
    8.5081   13.7869   20.9224 H    0  0  0  0  0  0  0  0  0  0  0  0
    8.1088   15.4864   21.2487 H    0  0  0  0  0  0  0  0  0  0  0  0
    6.0486   13.2163   26.6306 H    0  0  0  0  0  0  0  0  0  0  0  0
    4.6907   11.3440   27.3909 H    0  0  0  0  0  0  0  0  0  0  0  0
    5.2422    9.0238   26.6974 H    0  0  0  0  0  0  0  0  0  0  0  0
    7.1369    8.5897   25.2412 H    0  0  0  0  0  0  0  0  0  0  0  0
    9.4605    8.0274   24.6886 H    0  0  0  0  0  0  0  0  0  0  0  0
   10.1913    8.3331   23.1008 H    0  0  0  0  0  0  0  0  0  0  0  0
    8.4257    8.1756   23.2290 H    0  0  0  0  0  0  0  0  0  0  0  0
  6  7  1  0  0  0  0
  4  6  1  0  0  0  0
  3  4  1  0  0  0  0
  2  3  1  0  0  0  0
  1  2  1  0  0  0  0
 26  1  1  0  0  0  0
 27  1  1  0  0  0  0
 28  1  1  0  0  0  0
 29  2  1  0  0  0  0
 30  2  1  0  0  0  0
  5  4  2  0  0  0  0
 31  6  1  0  0  0  0
  8  7  1  0  0  0  0
 18  7  1  0  0  0  0
 32  7  1  0  0  0  0
  9  8  2  0  0  0  0
 10  8  1  0  0  0  0
 11 10  1  0  0  0  0
 12 11  1  0  0  0  0
 33 11  1  0  0  0  0
 34 11  1  0  0  0  0
 13 12  1  0  0  0  0
 35 12  1  0  0  0  0
 36 12  1  0  0  0  0
 14 13  1  0  0  0  0
 17 13  1  0  0  0  0
 37 13  1  0  0  0  0
 15 14  1  0  0  0  0
 16 14  2  0  0  0  0
 38 15  1  0  0  0  0
 39 15  1  0  0  0  0
 40 17  1  0  0  0  0
 41 17  1  0  0  0  0
 19 18  2  0  0  0  0
 20 19  1  0  0  0  0
 42 19  1  0  0  0  0
 21 20  2  0  0  0  0
 43 20  1  0  0  0  0
 22 21  1  0  0  0  0
 44 21  1  0  0  0  0
 23 22  2  0  0  0  0
 45 22  1  0  0  0  0
 24 23  1  0  0  0  0
 25 24  1  0  0  0  0
 46 25  1  0  0  0  0
 47 25  1  0  0  0  0
 48 25  1  0  0  0  0
 17 10  1  0  0  0  0
 23 18  1  0  0  0  0
M  END
>  <FittedScore>
-41.57

$$$$
