A71EV2A-x7011a_lowest-energy
  FITTED

 56 58     0  0  0  0  0  0  0999 V2000
    2.6225   14.2474   24.9076 C    0  0  0  0  0  0  0  0  0  0  0  0
    3.5578   13.7299   26.0257 C    0  0  0  0  0  0  0  0  0  0  0  0
    5.0770   13.8640   25.6870 C    0  0  0  0  0  0  0  0  0  0  0  0
    5.6357   15.3002   25.8516 C    0  0  0  0  0  0  0  0  0  0  0  0
    6.3559   15.3380   27.2154 C    0  0  0  0  0  0  0  0  0  0  0  0
    6.3798   13.8878   27.7465 C    0  0  0  0  0  0  0  0  0  0  0  0
    5.8674   13.0652   26.6415 N    0  0  0  0  0  0  0  0  0  0  0  0
    6.4551   11.8695   26.2674 C    0  0  0  0  0  0  0  0  0  0  0  0
    5.7753   10.7579   26.6613 N    0  0  0  0  0  0  0  0  0  0  0  0
    6.2381    9.5503   26.2521 C    0  0  0  0  0  0  0  0  0  0  0  0
    7.3323    9.3636   25.4617 N    0  0  0  0  0  0  0  0  0  0  0  0
    8.0448   10.4673   25.0787 C    0  0  0  0  0  0  0  0  0  0  0  0
    9.4829   10.2497   24.0309 S    0  0  0  0  0  0  0  0  0  0  0  0
    9.4130    8.5613   23.3932 C    0  0  0  0  0  0  0  0  0  0  0  0
    7.6499   11.7700   25.4931 C    0  0  0  0  0  0  0  0  0  0  0  0
    8.4837   13.0080   25.0908 C    0  0  0  0  0  0  0  0  0  0  0  0
    8.2205   13.5424   23.6731 C    0  0  0  0  0  0  0  0  0  0  0  0
    7.4434   12.9454   22.9434 O    0  0  0  0  0  0  0  0  0  0  0  0
    8.9325   14.6403   23.2268 N    0  0  0  0  0  0  0  0  0  0  0  0
    9.8419   15.5198   24.0447 C    0  0  0  0  0  0  0  0  0  0  0  0
   11.2971   15.5789   23.4983 C    0  0  0  0  0  0  0  0  0  0  0  0
   11.3311   16.0054   22.0054 C    0  0  0  0  0  0  0  0  0  0  0  0
   10.3470   15.1371   21.1638 C    0  0  0  0  0  0  0  0  0  0  0  0
   10.3079   15.6062   19.7138 C    0  0  0  0  0  0  0  0  0  0  0  0
   10.7574   14.7308   18.7987 N    0  0  0  0  0  0  0  0  0  0  0  0
    9.7915   16.6441   19.3591 O    0  0  0  0  0  0  0  0  0  0  0  0
    8.9197   15.1122   21.8041 C    0  0  0  0  0  0  0  0  0  0  0  0
    2.7659   13.6806   23.9844 H    0  0  0  0  0  0  0  0  0  0  0  0
    2.8017   15.3032   24.6923 H    0  0  0  0  0  0  0  0  0  0  0  0
    1.5783   14.1399   25.2091 H    0  0  0  0  0  0  0  0  0  0  0  0
    3.3131   12.6779   26.1997 H    0  0  0  0  0  0  0  0  0  0  0  0
    3.3281   14.2587   26.9569 H    0  0  0  0  0  0  0  0  0  0  0  0
    5.2413   13.5289   24.6573 H    0  0  0  0  0  0  0  0  0  0  0  0
    4.8609   16.0701   25.8019 H    0  0  0  0  0  0  0  0  0  0  0  0
    6.3477   15.5120   25.0494 H    0  0  0  0  0  0  0  0  0  0  0  0
    5.8300   15.9999   27.9089 H    0  0  0  0  0  0  0  0  0  0  0  0
    7.3744   15.7209   27.0970 H    0  0  0  0  0  0  0  0  0  0  0  0
    5.7360   13.8023   28.6253 H    0  0  0  0  0  0  0  0  0  0  0  0
    7.3920   13.6108   28.0569 H    0  0  0  0  0  0  0  0  0  0  0  0
    5.6811    8.6749   26.5737 H    0  0  0  0  0  0  0  0  0  0  0  0
    9.4901    7.8379   24.2036 H    0  0  0  0  0  0  0  0  0  0  0  0
   10.2323    8.3932   22.6974 H    0  0  0  0  0  0  0  0  0  0  0  0
    8.4679    8.4272   22.8691 H    0  0  0  0  0  0  0  0  0  0  0  0
    9.5477   12.7898   25.2072 H    0  0  0  0  0  0  0  0  0  0  0  0
    8.3290   13.8063   25.8054 H    0  0  0  0  0  0  0  0  0  0  0  0
    9.9119   15.2284   25.0926 H    0  0  0  0  0  0  0  0  0  0  0  0
    9.4232   16.5321   24.0671 H    0  0  0  0  0  0  0  0  0  0  0  0
   11.7723   14.5982   23.6140 H    0  0  0  0  0  0  0  0  0  0  0  0
   11.8797   16.2859   24.0986 H    0  0  0  0  0  0  0  0  0  0  0  0
   12.3491   15.8935   21.6270 H    0  0  0  0  0  0  0  0  0  0  0  0
   11.0771   17.0677   21.9290 H    0  0  0  0  0  0  0  0  0  0  0  0
   10.7252   14.1074   21.2000 H    0  0  0  0  0  0  0  0  0  0  0  0
   11.0046   13.7843   19.0744 H    0  0  0  0  0  0  0  0  0  0  0  0
   10.7020   14.9765   17.8152 H    0  0  0  0  0  0  0  0  0  0  0  0
    8.2766   14.4993   21.1684 H    0  0  0  0  0  0  0  0  0  0  0  0
    8.4708   16.1115   21.7776 H    0  0  0  0  0  0  0  0  0  0  0  0
 15 16  1  0  0  0  0
 12 15  2  0  0  0  0
 11 12  1  0  0  0  0
 10 11  2  0  0  0  0
  9 10  1  0  0  0  0
  8  9  2  0  0  0  0
  7  8  1  0  0  0  0
  6  7  1  0  0  0  0
  5  6  1  0  0  0  0
  4  5  1  0  0  0  0
  3  4  1  0  0  0  0
  2  3  1  0  0  0  0
  1  2  1  0  0  0  0
 28  1  1  0  0  0  0
 29  1  1  0  0  0  0
 30  1  1  0  0  0  0
 31  2  1  0  0  0  0
 32  2  1  0  0  0  0
 33  3  1  0  0  0  0
 34  4  1  0  0  0  0
 35  4  1  0  0  0  0
 36  5  1  0  0  0  0
 37  5  1  0  0  0  0
 38  6  1  0  0  0  0
 39  6  1  0  0  0  0
 40 10  1  0  0  0  0
 13 12  1  0  0  0  0
 14 13  1  0  0  0  0
 41 14  1  0  0  0  0
 42 14  1  0  0  0  0
 43 14  1  0  0  0  0
 17 16  1  0  0  0  0
 44 16  1  0  0  0  0
 45 16  1  0  0  0  0
 18 17  2  0  0  0  0
 19 17  1  0  0  0  0
 20 19  1  0  0  0  0
 21 20  1  0  0  0  0
 46 20  1  0  0  0  0
 47 20  1  0  0  0  0
 22 21  1  0  0  0  0
 48 21  1  0  0  0  0
 49 21  1  0  0  0  0
 23 22  1  0  0  0  0
 50 22  1  0  0  0  0
 51 22  1  0  0  0  0
 24 23  1  0  0  0  0
 27 23  1  0  0  0  0
 52 23  1  0  0  0  0
 25 24  1  0  0  0  0
 26 24  2  0  0  0  0
 53 25  1  0  0  0  0
 54 25  1  0  0  0  0
 55 27  1  0  0  0  0
 56 27  1  0  0  0  0
  7  3  1  0  0  0  0
 15  8  1  0  0  0  0
 27 19  1  0  0  0  0
M  END
>  <FittedScore>
-32.09

$$$$
