A71EV2A-x7011a_best-RMSD
  FITTED

 56 58     0  0  0  0  0  0  0999 V2000
    6.6545   13.8302   30.1000 C    0  0  0  0  0  0  0  0  0  0  0  0
    6.7101   13.9211   28.5622 C    0  0  0  0  0  0  0  0  0  0  0  0
    5.5433   13.1436   27.8755 C    0  0  0  0  0  0  0  0  0  0  0  0
    4.2281   13.9552   27.7356 C    0  0  0  0  0  0  0  0  0  0  0  0
    4.1010   14.3615   26.2518 C    0  0  0  0  0  0  0  0  0  0  0  0
    5.3317   13.7900   25.5360 C    0  0  0  0  0  0  0  0  0  0  0  0
    5.9143   12.8395   26.4873 N    0  0  0  0  0  0  0  0  0  0  0  0
    6.4967   11.6479   26.1001 C    0  0  0  0  0  0  0  0  0  0  0  0
    5.8288   10.5070   26.4390 N    0  0  0  0  0  0  0  0  0  0  0  0
    6.3309    9.3214   26.0130 C    0  0  0  0  0  0  0  0  0  0  0  0
    7.4376    9.1921   25.2376 N    0  0  0  0  0  0  0  0  0  0  0  0
    8.1331   10.3181   24.9159 C    0  0  0  0  0  0  0  0  0  0  0  0
    9.5634   10.1411   23.8656 S    0  0  0  0  0  0  0  0  0  0  0  0
    9.7400    8.3762   23.4851 C    0  0  0  0  0  0  0  0  0  0  0  0
    7.7164   11.5994   25.3707 C    0  0  0  0  0  0  0  0  0  0  0  0
    8.5439   12.8666   25.0505 C    0  0  0  0  0  0  0  0  0  0  0  0
    8.2949   13.4390   23.6440 C    0  0  0  0  0  0  0  0  0  0  0  0
    7.4357   12.9422   22.9397 O    0  0  0  0  0  0  0  0  0  0  0  0
    9.0500   14.5043   23.1939 N    0  0  0  0  0  0  0  0  0  0  0  0
    9.9759   15.3530   24.0236 C    0  0  0  0  0  0  0  0  0  0  0  0
   11.3987   15.4966   23.4203 C    0  0  0  0  0  0  0  0  0  0  0  0
   11.3512   16.0291   21.9657 C    0  0  0  0  0  0  0  0  0  0  0  0
   10.4035   15.1251   21.1254 C    0  0  0  0  0  0  0  0  0  0  0  0
   10.3319   15.5963   19.6787 C    0  0  0  0  0  0  0  0  0  0  0  0
   10.7491   14.7158   18.7410 N    0  0  0  0  0  0  0  0  0  0  0  0
    9.8313   16.6494   19.3466 O    0  0  0  0  0  0  0  0  0  0  0  0
    8.9882   15.0212   21.7823 C    0  0  0  0  0  0  0  0  0  0  0  0
    6.8520   12.8096   30.4403 H    0  0  0  0  0  0  0  0  0  0  0  0
    5.6754   14.1321   30.4780 H    0  0  0  0  0  0  0  0  0  0  0  0
    7.4063   14.4849   30.5449 H    0  0  0  0  0  0  0  0  0  0  0  0
    7.6748   13.5118   28.2445 H    0  0  0  0  0  0  0  0  0  0  0  0
    6.7090   14.9721   28.2537 H    0  0  0  0  0  0  0  0  0  0  0  0
    5.3259   12.2377   28.4516 H    0  0  0  0  0  0  0  0  0  0  0  0
    4.2047   14.8386   28.3830 H    0  0  0  0  0  0  0  0  0  0  0  0
    3.3764   13.3289   28.0194 H    0  0  0  0  0  0  0  0  0  0  0  0
    4.0617   15.4488   26.1410 H    0  0  0  0  0  0  0  0  0  0  0  0
    3.1872   13.9452   25.8154 H    0  0  0  0  0  0  0  0  0  0  0  0
    6.0318   14.5941   25.2931 H    0  0  0  0  0  0  0  0  0  0  0  0
    5.0443   13.3114   24.5941 H    0  0  0  0  0  0  0  0  0  0  0  0
    5.7992    8.4174   26.2879 H    0  0  0  0  0  0  0  0  0  0  0  0
    8.8616    8.0055   22.9508 H    0  0  0  0  0  0  0  0  0  0  0  0
    9.8831    7.8126   24.4079 H    0  0  0  0  0  0  0  0  0  0  0  0
   10.6209    8.2467   22.8519 H    0  0  0  0  0  0  0  0  0  0  0  0
    9.6034   12.6405   25.1892 H    0  0  0  0  0  0  0  0  0  0  0  0
    8.3541   13.6393   25.7965 H    0  0  0  0  0  0  0  0  0  0  0  0
   10.1016   14.9846   25.0376 H    0  0  0  0  0  0  0  0  0  0  0  0
    9.5272   16.3468   24.1355 H    0  0  0  0  0  0  0  0  0  0  0  0
   11.8962   14.5208   23.4354 H    0  0  0  0  0  0  0  0  0  0  0  0
   11.9945   16.1690   24.0421 H    0  0  0  0  0  0  0  0  0  0  0  0
   12.3573   16.0252   21.5368 H    0  0  0  0  0  0  0  0  0  0  0  0
   11.0061   17.0680   21.9610 H    0  0  0  0  0  0  0  0  0  0  0  0
   10.8339   14.1131   21.1512 H    0  0  0  0  0  0  0  0  0  0  0  0
   10.7056   14.9737   17.7627 H    0  0  0  0  0  0  0  0  0  0  0  0
   10.9598   13.7488   18.9865 H    0  0  0  0  0  0  0  0  0  0  0  0
    8.3664   14.3998   21.1290 H    0  0  0  0  0  0  0  0  0  0  0  0
    8.5064   16.0040   21.7804 H    0  0  0  0  0  0  0  0  0  0  0  0
 15 16  1  0  0  0  0
 12 15  2  0  0  0  0
 11 12  1  0  0  0  0
 10 11  2  0  0  0  0
  9 10  1  0  0  0  0
  8  9  2  0  0  0  0
  7  8  1  0  0  0  0
  6  7  1  0  0  0  0
  5  6  1  0  0  0  0
  4  5  1  0  0  0  0
  3  4  1  0  0  0  0
  2  3  1  0  0  0  0
  1  2  1  0  0  0  0
 28  1  1  0  0  0  0
 29  1  1  0  0  0  0
 30  1  1  0  0  0  0
 31  2  1  0  0  0  0
 32  2  1  0  0  0  0
 33  3  1  0  0  0  0
 34  4  1  0  0  0  0
 35  4  1  0  0  0  0
 36  5  1  0  0  0  0
 37  5  1  0  0  0  0
 38  6  1  0  0  0  0
 39  6  1  0  0  0  0
 40 10  1  0  0  0  0
 13 12  1  0  0  0  0
 14 13  1  0  0  0  0
 41 14  1  0  0  0  0
 42 14  1  0  0  0  0
 43 14  1  0  0  0  0
 17 16  1  0  0  0  0
 44 16  1  0  0  0  0
 45 16  1  0  0  0  0
 18 17  2  0  0  0  0
 19 17  1  0  0  0  0
 20 19  1  0  0  0  0
 21 20  1  0  0  0  0
 46 20  1  0  0  0  0
 47 20  1  0  0  0  0
 22 21  1  0  0  0  0
 48 21  1  0  0  0  0
 49 21  1  0  0  0  0
 23 22  1  0  0  0  0
 50 22  1  0  0  0  0
 51 22  1  0  0  0  0
 24 23  1  0  0  0  0
 27 23  1  0  0  0  0
 52 23  1  0  0  0  0
 25 24  1  0  0  0  0
 26 24  2  0  0  0  0
 53 25  1  0  0  0  0
 54 25  1  0  0  0  0
 55 27  1  0  0  0  0
 56 27  1  0  0  0  0
  7  3  1  0  0  0  0
 15  8  1  0  0  0  0
 27 19  1  0  0  0  0
M  END
>  <FittedScore>
-32.20

$$$$
