A71EV2A-x4260a_best-RMSD
  FITTED

 41 43     0  0  0  0  0  0  0999 V2000
    9.7576    8.7605   23.8805 CL   0  0  0  0  0  0  0  0  0  0  0  0
    8.5857    9.8489   24.5289 C    0  0  0  0  0  0  0  0  0  0  0  0
    7.4389    9.3557   25.1650 C    0  0  0  0  0  0  0  0  0  0  0  0
    6.5299   10.2350   25.7679 C    0  0  0  0  0  0  0  0  0  0  0  0
    8.8092   11.2305   24.4523 C    0  0  0  0  0  0  0  0  0  0  0  0
    7.8821   12.1239   25.0186 C    0  0  0  0  0  0  0  0  0  0  0  0
    6.7416   11.6171   25.6859 C    0  0  0  0  0  0  0  0  0  0  0  0
    5.8197   12.4794   26.2703 O    0  0  0  0  0  0  0  0  0  0  0  0
    5.6984   13.8631   25.8312 C    0  0  0  0  0  0  0  0  0  0  0  0
    7.1105   14.4939   25.7468 C    0  0  0  0  0  0  0  0  0  0  0  0
    8.0589   13.6413   24.8337 C    0  0  0  0  0  0  0  0  0  0  0  0
    7.9103   14.0351   23.3409 C    0  0  0  0  0  0  0  0  0  0  0  0
    7.1493   13.3858   22.6344 O    0  0  0  0  0  0  0  0  0  0  0  0
    8.6340   15.0977   22.8224 N    0  0  0  0  0  0  0  0  0  0  0  0
    9.4286   16.1138   23.6007 C    0  0  0  0  0  0  0  0  0  0  0  0
   10.9029   16.2243   23.1293 C    0  0  0  0  0  0  0  0  0  0  0  0
   10.9828   16.5778   21.6228 C    0  0  0  0  0  0  0  0  0  0  0  0
    8.6549   15.4526   21.3622 C    0  0  0  0  0  0  0  0  0  0  0  0
   10.1061   15.5991   20.7898 C    0  0  0  0  0  0  0  0  0  0  0  0
   10.1383   15.9613   19.3018 C    0  0  0  0  0  0  0  0  0  0  0  0
    9.5995   16.9332   18.8053 O    0  0  0  0  0  0  0  0  0  0  0  0
   10.6916   15.0302   18.5119 N    0  0  0  0  0  0  0  0  0  0  0  0
    7.2604    8.2840   25.2153 H    0  0  0  0  0  0  0  0  0  0  0  0
    5.6536    9.8430   26.2754 H    0  0  0  0  0  0  0  0  0  0  0  0
    9.6902   11.6069   23.9376 H    0  0  0  0  0  0  0  0  0  0  0  0
    5.2099   13.8867   24.8521 H    0  0  0  0  0  0  0  0  0  0  0  0
    5.0636   14.4070   26.5362 H    0  0  0  0  0  0  0  0  0  0  0  0
    7.0268   15.5290   25.4061 H    0  0  0  0  0  0  0  0  0  0  0  0
    7.5340   14.5366   26.7542 H    0  0  0  0  0  0  0  0  0  0  0  0
    9.0825   13.8224   25.1711 H    0  0  0  0  0  0  0  0  0  0  0  0
    8.9451   17.0899   23.4958 H    0  0  0  0  0  0  0  0  0  0  0  0
    9.4426   15.9476   24.6742 H    0  0  0  0  0  0  0  0  0  0  0  0
   11.4198   16.9920   23.7071 H    0  0  0  0  0  0  0  0  0  0  0  0
   11.4217   15.2796   23.3160 H    0  0  0  0  0  0  0  0  0  0  0  0
   10.6533   17.6096   21.4644 H    0  0  0  0  0  0  0  0  0  0  0  0
   12.0218   16.5189   21.2816 H    0  0  0  0  0  0  0  0  0  0  0  0
    8.0947   16.3827   21.2170 H    0  0  0  0  0  0  0  0  0  0  0  0
    8.1377   14.7101   20.7484 H    0  0  0  0  0  0  0  0  0  0  0  0
   10.5689   14.6123   20.9010 H    0  0  0  0  0  0  0  0  0  0  0  0
   10.6929   15.1835   17.5115 H    0  0  0  0  0  0  0  0  0  0  0  0
   10.9308   14.1125   18.8818 H    0  0  0  0  0  0  0  0  0  0  0  0
 11 12  1  0  0  0  0
 10 11  1  0  0  0  0
  9 10  1  0  0  0  0
  8  9  1  0  0  0  0
  7  8  1  0  0  0  0
  4  7  2  0  0  0  0
  3  4  1  0  0  0  0
  2  3  2  0  0  0  0
  1  2  1  0  0  0  0
 23  3  1  0  0  0  0
 24  4  1  0  0  0  0
  5  2  1  0  0  0  0
 25  5  1  0  0  0  0
  6  5  2  0  0  0  0
 26  9  1  0  0  0  0
 27  9  1  0  0  0  0
 28 10  1  0  0  0  0
 29 10  1  0  0  0  0
 30 11  1  0  0  0  0
 13 12  2  0  0  0  0
 14 12  1  0  0  0  0
 15 14  1  0  0  0  0
 31 15  1  0  0  0  0
 32 15  1  0  0  0  0
 16 15  1  0  0  0  0
 33 16  1  0  0  0  0
 34 16  1  0  0  0  0
 17 16  1  0  0  0  0
 35 17  1  0  0  0  0
 36 17  1  0  0  0  0
 18 14  1  0  0  0  0
 37 18  1  0  0  0  0
 38 18  1  0  0  0  0
 19 17  1  0  0  0  0
 20 19  1  0  0  0  0
 39 19  1  0  0  0  0
 21 20  2  0  0  0  0
 22 20  1  0  0  0  0
 40 22  1  0  0  0  0
 41 22  1  0  0  0  0
  7  6  1  0  0  0  0
 11  6  1  0  0  0  0
 19 18  1  0  0  0  0
M  END
>  <FittedScore>
-28.31

$$$$
