A71EV2A-x4544a_best-RMSD
  FITTED

 42 43     0  0  0  0  0  0  0999 V2000
    9.9711   17.0914   19.5987 O    0  0  0  0  0  0  0  0  0  0  0  0
   10.3246   15.9573   19.8723 C    0  0  0  0  0  0  0  0  0  0  0  0
   10.6346   15.0888   18.8898 N    0  0  0  0  0  0  0  0  0  0  0  0
   10.4136   15.4065   21.3029 C    0  0  0  0  0  0  0  0  0  0  0  0
   11.5745   16.0883   22.0799 C    0  0  0  0  0  0  0  0  0  0  0  0
   11.5991   15.6219   23.5558 C    0  0  0  0  0  0  0  0  0  0  0  0
   10.2234   15.8415   24.2277 C    0  0  0  0  0  0  0  0  0  0  0  0
    9.0485   15.4977   22.0668 C    0  0  0  0  0  0  0  0  0  0  0  0
    9.1103   15.1200   23.5246 N    0  0  0  0  0  0  0  0  0  0  0  0
    8.1564   14.3283   24.1345 C    0  0  0  0  0  0  0  0  0  0  0  0
    7.1244   14.0309   23.5534 O    0  0  0  0  0  0  0  0  0  0  0  0
    8.4021   13.7689   25.5502 C    0  0  0  0  0  0  0  0  0  0  0  0
    7.5844   12.4979   25.8329 C    0  0  0  0  0  0  0  0  0  0  0  0
    7.9111   11.2001   25.3313 C    0  0  0  0  0  0  0  0  0  0  0  0
    9.4197   10.8946   24.4260 S    0  0  0  0  0  0  0  0  0  0  0  0
    9.2939   11.6135   23.1928 O    0  0  0  0  0  0  0  0  0  0  0  0
   10.5091   11.2319   25.2955 O    0  0  0  0  0  0  0  0  0  0  0  0
    9.6153    9.1722   24.0050 C    0  0  0  0  0  0  0  0  0  0  0  0
    6.3860   12.6753   26.5473 C    0  0  0  0  0  0  0  0  0  0  0  0
    5.5252   11.5961   26.7648 C    0  0  0  0  0  0  0  0  0  0  0  0
    3.9337   11.8820   27.7482 BR   0  0  0  0  0  0  0  0  0  0  0  0
    5.8250   10.3267   26.2623 C    0  0  0  0  0  0  0  0  0  0  0  0
    7.0069   10.1377   25.5393 C    0  0  0  0  0  0  0  0  0  0  0  0
   10.8207   14.1126   19.1165 H    0  0  0  0  0  0  0  0  0  0  0  0
   10.5581   15.3689   17.9203 H    0  0  0  0  0  0  0  0  0  0  0  0
   10.6603   14.3381   21.2652 H    0  0  0  0  0  0  0  0  0  0  0  0
   12.5324   15.8453   21.6082 H    0  0  0  0  0  0  0  0  0  0  0  0
   11.4657   17.1773   22.0504 H    0  0  0  0  0  0  0  0  0  0  0  0
   11.8710   14.5628   23.6102 H    0  0  0  0  0  0  0  0  0  0  0  0
   12.3656   16.1724   24.1055 H    0  0  0  0  0  0  0  0  0  0  0  0
   10.3326   15.5629   25.2737 H    0  0  0  0  0  0  0  0  0  0  0  0
    9.9914   16.9101   24.2520 H    0  0  0  0  0  0  0  0  0  0  0  0
    8.3561   14.8534   21.5179 H    0  0  0  0  0  0  0  0  0  0  0  0
    8.6333   16.5057   21.9950 H    0  0  0  0  0  0  0  0  0  0  0  0
    9.4533   13.5523   25.7309 H    0  0  0  0  0  0  0  0  0  0  0  0
    8.1603   14.5534   26.2759 H    0  0  0  0  0  0  0  0  0  0  0  0
   10.5850    9.0490   23.5185 H    0  0  0  0  0  0  0  0  0  0  0  0
    8.8328    8.8522   23.3134 H    0  0  0  0  0  0  0  0  0  0  0  0
    9.6106    8.5574   24.9086 H    0  0  0  0  0  0  0  0  0  0  0  0
    6.1226   13.6643   26.9214 H    0  0  0  0  0  0  0  0  0  0  0  0
    5.1503    9.4861   26.4220 H    0  0  0  0  0  0  0  0  0  0  0  0
    7.1951    9.1440   25.1563 H    0  0  0  0  0  0  0  0  0  0  0  0
  9 10  1  0  0  0  0
  7  9  1  0  0  0  0
  6  7  1  0  0  0  0
  5  6  1  0  0  0  0
  4  5  1  0  0  0  0
  2  4  1  0  0  0  0
  1  2  2  0  0  0  0
  3  2  1  0  0  0  0
 24  3  1  0  0  0  0
 25  3  1  0  0  0  0
 26  4  1  0  0  0  0
 27  5  1  0  0  0  0
 28  5  1  0  0  0  0
 29  6  1  0  0  0  0
 30  6  1  0  0  0  0
 31  7  1  0  0  0  0
 32  7  1  0  0  0  0
  8  4  1  0  0  0  0
 33  8  1  0  0  0  0
 34  8  1  0  0  0  0
 11 10  2  0  0  0  0
 12 10  1  0  0  0  0
 35 12  1  0  0  0  0
 36 12  1  0  0  0  0
 13 12  1  0  0  0  0
 14 13  1  0  0  0  0
 23 14  2  0  0  0  0
 15 14  1  0  0  0  0
 16 15  2  0  0  0  0
 17 15  2  0  0  0  0
 18 15  1  0  0  0  0
 37 18  1  0  0  0  0
 38 18  1  0  0  0  0
 39 18  1  0  0  0  0
 19 13  2  0  0  0  0
 40 19  1  0  0  0  0
 20 19  1  0  0  0  0
 21 20  1  0  0  0  0
 22 20  2  0  0  0  0
 41 22  1  0  0  0  0
 42 23  1  0  0  0  0
  9  8  1  0  0  0  0
 23 22  1  0  0  0  0
M  END
>  <FittedScore>
-29.11

$$$$
