A71EV2A-x4544a_lowest-energy
  FITTED

 42 43     0  0  0  0  0  0  0999 V2000
    9.7645   17.0441   19.4432 O    0  0  0  0  0  0  0  0  0  0  0  0
   10.2619   15.9686   19.7283 C    0  0  0  0  0  0  0  0  0  0  0  0
   10.7324   15.1424   18.7731 N    0  0  0  0  0  0  0  0  0  0  0  0
   10.3795   15.4414   21.1570 C    0  0  0  0  0  0  0  0  0  0  0  0
   11.4435   16.2400   21.9639 C    0  0  0  0  0  0  0  0  0  0  0  0
   11.5281   15.7038   23.4174 C    0  0  0  0  0  0  0  0  0  0  0  0
   10.1278   15.6476   24.0864 C    0  0  0  0  0  0  0  0  0  0  0  0
    9.0058   15.4090   21.9019 C    0  0  0  0  0  0  0  0  0  0  0  0
    9.1183   14.8572   23.2956 N    0  0  0  0  0  0  0  0  0  0  0  0
    8.3543   13.8003   23.7498 C    0  0  0  0  0  0  0  0  0  0  0  0
    7.4898   13.3010   23.0447 O    0  0  0  0  0  0  0  0  0  0  0  0
    8.6447   13.2063   25.1414 C    0  0  0  0  0  0  0  0  0  0  0  0
    7.6985   12.0580   25.5306 C    0  0  0  0  0  0  0  0  0  0  0  0
    7.8849   10.6956   25.1576 C    0  0  0  0  0  0  0  0  0  0  0  0
    9.3335   10.1669   24.2736 S    0  0  0  0  0  0  0  0  0  0  0  0
    9.3571   10.9513   23.0738 O    0  0  0  0  0  0  0  0  0  0  0  0
   10.4288   10.2737   25.1937 O    0  0  0  0  0  0  0  0  0  0  0  0
    9.2426    8.4656   23.7856 C    0  0  0  0  0  0  0  0  0  0  0  0
    6.5409   12.4226   26.2383 C    0  0  0  0  0  0  0  0  0  0  0  0
    5.5996   11.4631   26.6076 C    0  0  0  0  0  0  0  0  0  0  0  0
    4.0950   12.0013   27.6251 BR   0  0  0  0  0  0  0  0  0  0  0  0
    5.7859   10.1203   26.2550 C    0  0  0  0  0  0  0  0  0  0  0  0
    6.9071    9.7492   25.5110 C    0  0  0  0  0  0  0  0  0  0  0  0
   10.6180   15.3795   17.7965 H    0  0  0  0  0  0  0  0  0  0  0  0
   11.0422   14.2008   19.0150 H    0  0  0  0  0  0  0  0  0  0  0  0
   10.7270   14.3996   21.1278 H    0  0  0  0  0  0  0  0  0  0  0  0
   12.4213   16.1488   21.4807 H    0  0  0  0  0  0  0  0  0  0  0  0
   11.1968   17.3075   21.9784 H    0  0  0  0  0  0  0  0  0  0  0  0
   11.9691   14.7007   23.4174 H    0  0  0  0  0  0  0  0  0  0  0  0
   12.1928   16.3429   24.0043 H    0  0  0  0  0  0  0  0  0  0  0  0
   10.2840   15.2744   25.0968 H    0  0  0  0  0  0  0  0  0  0  0  0
    9.7497   16.6661   24.2202 H    0  0  0  0  0  0  0  0  0  0  0  0
    8.3202   14.8275   21.2808 H    0  0  0  0  0  0  0  0  0  0  0  0
    8.5707   16.4140   21.9482 H    0  0  0  0  0  0  0  0  0  0  0  0
    9.6858   12.8837   25.1954 H    0  0  0  0  0  0  0  0  0  0  0  0
    8.5585   13.9930   25.8956 H    0  0  0  0  0  0  0  0  0  0  0  0
    9.1239    7.8302   24.6656 H    0  0  0  0  0  0  0  0  0  0  0  0
   10.1572    8.1557   23.2763 H    0  0  0  0  0  0  0  0  0  0  0  0
    8.4137    8.3484   23.0825 H    0  0  0  0  0  0  0  0  0  0  0  0
    6.3756   13.4670   26.4978 H    0  0  0  0  0  0  0  0  0  0  0  0
    5.0649    9.3575   26.5396 H    0  0  0  0  0  0  0  0  0  0  0  0
    7.0102    8.7043   25.2452 H    0  0  0  0  0  0  0  0  0  0  0  0
  9 10  1  0  0  0  0
  7  9  1  0  0  0  0
  6  7  1  0  0  0  0
  5  6  1  0  0  0  0
  4  5  1  0  0  0  0
  2  4  1  0  0  0  0
  1  2  2  0  0  0  0
  3  2  1  0  0  0  0
 24  3  1  0  0  0  0
 25  3  1  0  0  0  0
 26  4  1  0  0  0  0
 27  5  1  0  0  0  0
 28  5  1  0  0  0  0
 29  6  1  0  0  0  0
 30  6  1  0  0  0  0
 31  7  1  0  0  0  0
 32  7  1  0  0  0  0
  8  4  1  0  0  0  0
 33  8  1  0  0  0  0
 34  8  1  0  0  0  0
 11 10  2  0  0  0  0
 12 10  1  0  0  0  0
 35 12  1  0  0  0  0
 36 12  1  0  0  0  0
 13 12  1  0  0  0  0
 14 13  1  0  0  0  0
 23 14  2  0  0  0  0
 15 14  1  0  0  0  0
 16 15  2  0  0  0  0
 17 15  2  0  0  0  0
 18 15  1  0  0  0  0
 37 18  1  0  0  0  0
 38 18  1  0  0  0  0
 39 18  1  0  0  0  0
 19 13  2  0  0  0  0
 40 19  1  0  0  0  0
 20 19  1  0  0  0  0
 21 20  1  0  0  0  0
 22 20  2  0  0  0  0
 41 22  1  0  0  0  0
 42 23  1  0  0  0  0
  9  8  1  0  0  0  0
 23 22  1  0  0  0  0
M  END
>  <FittedScore>
-31.79

$$$$
