A71EV2A-x5721b_lowest-energy
  FITTED

 45 47     0  0  0  0  0  0  0999 V2000
    9.8818   15.3099   25.4708 O    0  0  0  0  0  0  0  0  0  0  0  0
    9.9754   15.4978   24.2644 C    0  0  0  0  0  0  0  0  0  0  0  0
   11.3727   15.4580   23.5924 C    0  0  0  0  0  0  0  0  0  0  0  0
   11.9243   13.9995   23.7371 C    0  0  0  0  0  0  0  0  0  0  0  0
   12.3279   16.4443   24.3386 C    0  0  0  0  0  0  0  0  0  0  0  0
   11.3612   15.8972   22.0783 C    0  0  0  0  0  0  0  0  0  0  0  0
   10.1920   15.2571   21.2933 C    0  0  0  0  0  0  0  0  0  0  0  0
   10.2407   15.6650   19.8134 C    0  0  0  0  0  0  0  0  0  0  0  0
    9.9009   16.7584   19.3923 O    0  0  0  0  0  0  0  0  0  0  0  0
   10.6730   14.7126   18.9600 N    0  0  0  0  0  0  0  0  0  0  0  0
    8.8434   15.6028   21.9800 C    0  0  0  0  0  0  0  0  0  0  0  0
    8.8451   15.5507   23.4744 N    0  0  0  0  0  0  0  0  0  0  0  0
    7.4657   15.4068   24.0369 C    0  0  0  0  0  0  0  0  0  0  0  0
    7.1497   13.9875   24.5397 C    0  0  0  0  0  0  0  0  0  0  0  0
    6.1146   13.8203   25.4946 C    0  0  0  0  0  0  0  0  0  0  0  0
    5.8028   12.5497   26.0152 C    0  0  0  0  0  0  0  0  0  0  0  0
    7.8752   12.8496   24.1044 C    0  0  0  0  0  0  0  0  0  0  0  0
    7.5693   11.6031   24.6553 C    0  0  0  0  0  0  0  0  0  0  0  0
    8.1116   10.3770   24.4213 N    0  0  0  0  0  0  0  0  0  0  0  0
    9.3135   10.0863   23.6163 C    0  0  0  0  0  0  0  0  0  0  0  0
    6.5499   11.4585   25.5631 C    0  0  0  0  0  0  0  0  0  0  0  0
    6.4506   10.1143   25.8485 C    0  0  0  0  0  0  0  0  0  0  0  0
    7.4519    9.3556   25.0532 N    0  0  0  0  0  0  0  0  0  0  0  0
   12.8807   13.8751   23.2202 H    0  0  0  0  0  0  0  0  0  0  0  0
   11.2281   13.2590   23.3347 H    0  0  0  0  0  0  0  0  0  0  0  0
   12.0835   13.7319   24.7850 H    0  0  0  0  0  0  0  0  0  0  0  0
   11.9178   17.4585   24.3389 H    0  0  0  0  0  0  0  0  0  0  0  0
   13.3138   16.4862   23.8665 H    0  0  0  0  0  0  0  0  0  0  0  0
   12.4805   16.1630   25.3837 H    0  0  0  0  0  0  0  0  0  0  0  0
   11.2656   16.9875   21.9991 H    0  0  0  0  0  0  0  0  0  0  0  0
   12.3113   15.6430   21.5940 H    0  0  0  0  0  0  0  0  0  0  0  0
   10.2927   14.1684   21.3574 H    0  0  0  0  0  0  0  0  0  0  0  0
   10.8623   13.7675   19.2905 H    0  0  0  0  0  0  0  0  0  0  0  0
   10.6822   14.8979   17.9612 H    0  0  0  0  0  0  0  0  0  0  0  0
    8.5275   16.6120   21.6967 H    0  0  0  0  0  0  0  0  0  0  0  0
    8.0958   14.9160   21.5661 H    0  0  0  0  0  0  0  0  0  0  0  0
    7.3606   16.1204   24.8567 H    0  0  0  0  0  0  0  0  0  0  0  0
    6.6959   15.6952   23.3169 H    0  0  0  0  0  0  0  0  0  0  0  0
    5.5446   14.6815   25.8364 H    0  0  0  0  0  0  0  0  0  0  0  0
    4.9986   12.4233   26.7350 H    0  0  0  0  0  0  0  0  0  0  0  0
    8.6575   12.9139   23.3555 H    0  0  0  0  0  0  0  0  0  0  0  0
   10.1535   10.7317   23.8941 H    0  0  0  0  0  0  0  0  0  0  0  0
    9.1189   10.2488   22.5560 H    0  0  0  0  0  0  0  0  0  0  0  0
    9.6530    9.0528   23.7318 H    0  0  0  0  0  0  0  0  0  0  0  0
    5.7514    9.6349   26.5304 H    0  0  0  0  0  0  0  0  0  0  0  0
 11 12  1  0  0  0  0
  7 11  1  0  0  0  0
  8  7  1  0  0  0  0
  6  7  1  0  0  0  0
  3  6  1  0  0  0  0
  2  3  1  0  0  0  0
  1  2  2  0  0  0  0
  4  3  1  0  0  0  0
 24  4  1  0  0  0  0
 25  4  1  0  0  0  0
 26  4  1  0  0  0  0
  5  3  1  0  0  0  0
 27  5  1  0  0  0  0
 28  5  1  0  0  0  0
 29  5  1  0  0  0  0
 30  6  1  0  0  0  0
 31  6  1  0  0  0  0
 32  7  1  0  0  0  0
  9  8  2  0  0  0  0
 10  8  1  0  0  0  0
 33 10  1  0  0  0  0
 34 10  1  0  0  0  0
 35 11  1  0  0  0  0
 36 11  1  0  0  0  0
 13 12  1  0  0  0  0
 37 13  1  0  0  0  0
 38 13  1  0  0  0  0
 14 13  1  0  0  0  0
 15 14  1  0  0  0  0
 39 15  1  0  0  0  0
 16 15  2  0  0  0  0
 40 16  1  0  0  0  0
 17 14  2  0  0  0  0
 41 17  1  0  0  0  0
 18 17  1  0  0  0  0
 19 18  1  0  0  0  0
 23 19  1  0  0  0  0
 20 19  1  0  0  0  0
 42 20  1  0  0  0  0
 43 20  1  0  0  0  0
 44 20  1  0  0  0  0
 21 16  1  0  0  0  0
 22 21  1  0  0  0  0
 45 22  1  0  0  0  0
 12  2  1  0  0  0  0
 21 18  2  0  0  0  0
 23 22  2  0  0  0  0
M  END
>  <FittedScore>
-32.86

$$$$
