A71EV2A-x7161a_lowest-energy
  FITTED

 57 59     0  0  0  0  0  0  0999 V2000
    6.1499   16.4626   24.2820 C    0  0  0  0  0  0  0  0  0  0  0  0
    5.6732   15.1677   24.7340 O    0  0  0  0  0  0  0  0  0  0  0  0
    4.7394   15.1417   25.8374 C    0  0  0  0  0  0  0  0  0  0  0  0
    4.4976   13.6887   26.3401 C    0  0  0  0  0  0  0  0  0  0  0  0
    3.5761   13.6760   27.5848 C    0  0  0  0  0  0  0  0  0  0  0  0
    4.5205   13.7088   28.8063 C    0  0  0  0  0  0  0  0  0  0  0  0
    5.9277   13.3605   28.2783 C    0  0  0  0  0  0  0  0  0  0  0  0
    5.7424   13.0765   26.8459 N    0  0  0  0  0  0  0  0  0  0  0  0
    6.2271   11.8952   26.3191 C    0  0  0  0  0  0  0  0  0  0  0  0
    5.5074   10.7681   26.6018 N    0  0  0  0  0  0  0  0  0  0  0  0
    5.9656    9.5885   26.1133 C    0  0  0  0  0  0  0  0  0  0  0  0
    7.0846    9.4422   25.3527 N    0  0  0  0  0  0  0  0  0  0  0  0
    7.8194   10.5524   25.0652 C    0  0  0  0  0  0  0  0  0  0  0  0
    9.2941   10.3567   24.0620 S    0  0  0  0  0  0  0  0  0  0  0  0
    9.3005    8.6532   23.4350 C    0  0  0  0  0  0  0  0  0  0  0  0
    7.4224   11.8325   25.5458 C    0  0  0  0  0  0  0  0  0  0  0  0
    8.2650   13.0804   25.2172 C    0  0  0  0  0  0  0  0  0  0  0  0
    8.1680   13.5438   23.7488 C    0  0  0  0  0  0  0  0  0  0  0  0
    7.3222   13.0480   23.0153 O    0  0  0  0  0  0  0  0  0  0  0  0
    9.0041   14.5536   23.3005 N    0  0  0  0  0  0  0  0  0  0  0  0
   10.0013   15.3333   24.1241 C    0  0  0  0  0  0  0  0  0  0  0  0
   11.4171   15.4136   23.4812 C    0  0  0  0  0  0  0  0  0  0  0  0
   11.3619   15.9360   22.0217 C    0  0  0  0  0  0  0  0  0  0  0  0
   10.3253   15.1227   21.1962 C    0  0  0  0  0  0  0  0  0  0  0  0
   10.2529   15.6284   19.7558 C    0  0  0  0  0  0  0  0  0  0  0  0
   10.7070   14.7772   18.8186 N    0  0  0  0  0  0  0  0  0  0  0  0
    9.7814   16.7012   19.4315 O    0  0  0  0  0  0  0  0  0  0  0  0
    8.9382   15.1170   21.9075 C    0  0  0  0  0  0  0  0  0  0  0  0
    5.3444   17.1990   24.2481 H    0  0  0  0  0  0  0  0  0  0  0  0
    6.5418   16.3653   23.2710 H    0  0  0  0  0  0  0  0  0  0  0  0
    6.9447   16.8071   24.9453 H    0  0  0  0  0  0  0  0  0  0  0  0
    3.7921   15.5731   25.5012 H    0  0  0  0  0  0  0  0  0  0  0  0
    5.1208   15.7774   26.6431 H    0  0  0  0  0  0  0  0  0  0  0  0
    4.0364   13.1065   25.5327 H    0  0  0  0  0  0  0  0  0  0  0  0
    2.9768   12.7606   27.6012 H    0  0  0  0  0  0  0  0  0  0  0  0
    2.8789   14.5191   27.6028 H    0  0  0  0  0  0  0  0  0  0  0  0
    4.1995   12.9838   29.5593 H    0  0  0  0  0  0  0  0  0  0  0  0
    4.5149   14.6994   29.2742 H    0  0  0  0  0  0  0  0  0  0  0  0
    6.3429   12.5145   28.8364 H    0  0  0  0  0  0  0  0  0  0  0  0
    6.6142   14.2007   28.4124 H    0  0  0  0  0  0  0  0  0  0  0  0
    5.3878    8.6970   26.3387 H    0  0  0  0  0  0  0  0  0  0  0  0
    8.4206    8.4741   22.8115 H    0  0  0  0  0  0  0  0  0  0  0  0
    9.2974    7.9588   24.2758 H    0  0  0  0  0  0  0  0  0  0  0  0
   10.1978    8.4821   22.8363 H    0  0  0  0  0  0  0  0  0  0  0  0
    9.2979   12.8519   25.4890 H    0  0  0  0  0  0  0  0  0  0  0  0
    8.0007   13.9181   25.8641 H    0  0  0  0  0  0  0  0  0  0  0  0
   10.1392   14.9360   25.1282 H    0  0  0  0  0  0  0  0  0  0  0  0
    9.6172   16.3479   24.2750 H    0  0  0  0  0  0  0  0  0  0  0  0
   11.8799   14.4221   23.4943 H    0  0  0  0  0  0  0  0  0  0  0  0
   12.0535   16.0666   24.0828 H    0  0  0  0  0  0  0  0  0  0  0  0
   12.3515   15.8451   21.5674 H    0  0  0  0  0  0  0  0  0  0  0  0
   11.1069   17.0017   22.0204 H    0  0  0  0  0  0  0  0  0  0  0  0
   10.6641   14.0808   21.1908 H    0  0  0  0  0  0  0  0  0  0  0  0
   10.9587   13.8246   19.0784 H    0  0  0  0  0  0  0  0  0  0  0  0
   10.6465   15.0304   17.8364 H    0  0  0  0  0  0  0  0  0  0  0  0
    8.2307   14.5802   21.2702 H    0  0  0  0  0  0  0  0  0  0  0  0
    8.5496   16.1393   21.9591 H    0  0  0  0  0  0  0  0  0  0  0  0
 16 17  1  0  0  0  0
 13 16  2  0  0  0  0
 12 13  1  0  0  0  0
 11 12  2  0  0  0  0
 10 11  1  0  0  0  0
  9 10  2  0  0  0  0
  8  9  1  0  0  0  0
  7  8  1  0  0  0  0
  6  7  1  0  0  0  0
  5  6  1  0  0  0  0
  4  5  1  0  0  0  0
  3  4  1  0  0  0  0
  2  3  1  0  0  0  0
  1  2  1  0  0  0  0
 29  1  1  0  0  0  0
 30  1  1  0  0  0  0
 31  1  1  0  0  0  0
 32  3  1  0  0  0  0
 33  3  1  0  0  0  0
 34  4  1  0  0  0  0
 35  5  1  0  0  0  0
 36  5  1  0  0  0  0
 37  6  1  0  0  0  0
 38  6  1  0  0  0  0
 39  7  1  0  0  0  0
 40  7  1  0  0  0  0
 41 11  1  0  0  0  0
 14 13  1  0  0  0  0
 15 14  1  0  0  0  0
 42 15  1  0  0  0  0
 43 15  1  0  0  0  0
 44 15  1  0  0  0  0
 18 17  1  0  0  0  0
 45 17  1  0  0  0  0
 46 17  1  0  0  0  0
 19 18  2  0  0  0  0
 20 18  1  0  0  0  0
 21 20  1  0  0  0  0
 22 21  1  0  0  0  0
 47 21  1  0  0  0  0
 48 21  1  0  0  0  0
 23 22  1  0  0  0  0
 49 22  1  0  0  0  0
 50 22  1  0  0  0  0
 24 23  1  0  0  0  0
 51 23  1  0  0  0  0
 52 23  1  0  0  0  0
 25 24  1  0  0  0  0
 28 24  1  0  0  0  0
 53 24  1  0  0  0  0
 26 25  1  0  0  0  0
 27 25  2  0  0  0  0
 54 26  1  0  0  0  0
 55 26  1  0  0  0  0
 56 28  1  0  0  0  0
 57 28  1  0  0  0  0
  8  4  1  0  0  0  0
 16  9  1  0  0  0  0
 28 20  1  0  0  0  0
M  END
>  <FittedScore>
-34.57

$$$$
