A71EV2A-x7161a_best-RMSD
  FITTED

 57 59     0  0  0  0  0  0  0999 V2000
    8.9919   15.4638   27.9090 C    0  0  0  0  0  0  0  0  0  0  0  0
    7.6487   15.2558   28.4198 O    0  0  0  0  0  0  0  0  0  0  0  0
    6.8914   14.1137   27.9306 C    0  0  0  0  0  0  0  0  0  0  0  0
    6.1706   14.4442   26.5820 C    0  0  0  0  0  0  0  0  0  0  0  0
    5.0480   15.5043   26.7433 C    0  0  0  0  0  0  0  0  0  0  0  0
    3.7313   14.8648   26.2755 C    0  0  0  0  0  0  0  0  0  0  0  0
    4.0345   13.3845   26.0073 C    0  0  0  0  0  0  0  0  0  0  0  0
    5.5009   13.2657   25.9954 N    0  0  0  0  0  0  0  0  0  0  0  0
    6.1535   12.0704   25.7250 C    0  0  0  0  0  0  0  0  0  0  0  0
    5.7193   10.9897   26.4399 N    0  0  0  0  0  0  0  0  0  0  0  0
    6.3320    9.7963   26.2437 C    0  0  0  0  0  0  0  0  0  0  0  0
    7.3892    9.6036   25.4114 N    0  0  0  0  0  0  0  0  0  0  0  0
    7.8633   10.6746   24.7145 C    0  0  0  0  0  0  0  0  0  0  0  0
    9.3514   10.4362   23.7506 S    0  0  0  0  0  0  0  0  0  0  0  0
    9.4473    8.6530   23.4071 C    0  0  0  0  0  0  0  0  0  0  0  0
    7.2250   11.9445   24.7889 C    0  0  0  0  0  0  0  0  0  0  0  0
    7.6821   13.1008   23.8635 C    0  0  0  0  0  0  0  0  0  0  0  0
    8.9347   13.8492   24.3474 C    0  0  0  0  0  0  0  0  0  0  0  0
    9.4330   13.5300   25.4155 O    0  0  0  0  0  0  0  0  0  0  0  0
    9.4540   14.8838   23.5901 N    0  0  0  0  0  0  0  0  0  0  0  0
   10.4997   15.8179   24.1196 C    0  0  0  0  0  0  0  0  0  0  0  0
   11.7978   15.7783   23.2764 C    0  0  0  0  0  0  0  0  0  0  0  0
   11.5187   16.1263   21.7981 C    0  0  0  0  0  0  0  0  0  0  0  0
   10.3911   15.2206   21.2254 C    0  0  0  0  0  0  0  0  0  0  0  0
   10.1451   15.6173   19.7689 C    0  0  0  0  0  0  0  0  0  0  0  0
   10.7090   14.8116   18.8421 N    0  0  0  0  0  0  0  0  0  0  0  0
    9.6232   16.6654   19.4313 O    0  0  0  0  0  0  0  0  0  0  0  0
    9.1188   15.2285   22.1518 C    0  0  0  0  0  0  0  0  0  0  0  0
    9.5998   14.5652   28.0476 H    0  0  0  0  0  0  0  0  0  0  0  0
    9.4602   16.2846   28.4551 H    0  0  0  0  0  0  0  0  0  0  0  0
    8.9686   15.7207   26.8486 H    0  0  0  0  0  0  0  0  0  0  0  0
    6.1514   13.8478   28.6915 H    0  0  0  0  0  0  0  0  0  0  0  0
    7.5583   13.2496   27.8411 H    0  0  0  0  0  0  0  0  0  0  0  0
    6.8984   14.8513   25.8842 H    0  0  0  0  0  0  0  0  0  0  0  0
    5.2733   16.3875   26.1384 H    0  0  0  0  0  0  0  0  0  0  0  0
    4.9474   15.8579   27.7737 H    0  0  0  0  0  0  0  0  0  0  0  0
    3.3691   15.3581   25.3682 H    0  0  0  0  0  0  0  0  0  0  0  0
    2.9579   14.9706   27.0428 H    0  0  0  0  0  0  0  0  0  0  0  0
    3.6045   13.0746   25.0516 H    0  0  0  0  0  0  0  0  0  0  0  0
    3.5819   12.7709   26.7926 H    0  0  0  0  0  0  0  0  0  0  0  0
    5.9622    8.9421   26.8038 H    0  0  0  0  0  0  0  0  0  0  0  0
    9.5686    8.1035   24.3428 H    0  0  0  0  0  0  0  0  0  0  0  0
   10.3031    8.4408   22.7638 H    0  0  0  0  0  0  0  0  0  0  0  0
    8.5308    8.3281   22.9085 H    0  0  0  0  0  0  0  0  0  0  0  0
    6.8765   13.8201   23.7084 H    0  0  0  0  0  0  0  0  0  0  0  0
    7.8605   12.6836   22.8718 H    0  0  0  0  0  0  0  0  0  0  0  0
   10.7727   15.6070   25.1567 H    0  0  0  0  0  0  0  0  0  0  0  0
   10.0987   16.8360   24.1341 H    0  0  0  0  0  0  0  0  0  0  0  0
   12.2637   14.7887   23.3438 H    0  0  0  0  0  0  0  0  0  0  0  0
   12.5174   16.4978   23.6791 H    0  0  0  0  0  0  0  0  0  0  0  0
   12.4355   15.9973   21.2173 H    0  0  0  0  0  0  0  0  0  0  0  0
   11.2462   17.1844   21.7227 H    0  0  0  0  0  0  0  0  0  0  0  0
   10.7634   14.1887   21.2468 H    0  0  0  0  0  0  0  0  0  0  0  0
   10.6382   15.0561   17.8611 H    0  0  0  0  0  0  0  0  0  0  0  0
   11.0616   13.8878   19.1087 H    0  0  0  0  0  0  0  0  0  0  0  0
    8.3811   14.5590   21.7080 H    0  0  0  0  0  0  0  0  0  0  0  0
    8.6487   16.2176   22.1298 H    0  0  0  0  0  0  0  0  0  0  0  0
 16 17  1  0  0  0  0
 13 16  2  0  0  0  0
 12 13  1  0  0  0  0
 11 12  2  0  0  0  0
 10 11  1  0  0  0  0
  9 10  2  0  0  0  0
  8  9  1  0  0  0  0
  7  8  1  0  0  0  0
  6  7  1  0  0  0  0
  5  6  1  0  0  0  0
  4  5  1  0  0  0  0
  3  4  1  0  0  0  0
  2  3  1  0  0  0  0
  1  2  1  0  0  0  0
 29  1  1  0  0  0  0
 30  1  1  0  0  0  0
 31  1  1  0  0  0  0
 32  3  1  0  0  0  0
 33  3  1  0  0  0  0
 34  4  1  0  0  0  0
 35  5  1  0  0  0  0
 36  5  1  0  0  0  0
 37  6  1  0  0  0  0
 38  6  1  0  0  0  0
 39  7  1  0  0  0  0
 40  7  1  0  0  0  0
 41 11  1  0  0  0  0
 14 13  1  0  0  0  0
 15 14  1  0  0  0  0
 42 15  1  0  0  0  0
 43 15  1  0  0  0  0
 44 15  1  0  0  0  0
 18 17  1  0  0  0  0
 45 17  1  0  0  0  0
 46 17  1  0  0  0  0
 19 18  2  0  0  0  0
 20 18  1  0  0  0  0
 21 20  1  0  0  0  0
 22 21  1  0  0  0  0
 47 21  1  0  0  0  0
 48 21  1  0  0  0  0
 23 22  1  0  0  0  0
 49 22  1  0  0  0  0
 50 22  1  0  0  0  0
 24 23  1  0  0  0  0
 51 23  1  0  0  0  0
 52 23  1  0  0  0  0
 25 24  1  0  0  0  0
 28 24  1  0  0  0  0
 53 24  1  0  0  0  0
 26 25  1  0  0  0  0
 27 25  2  0  0  0  0
 54 26  1  0  0  0  0
 55 26  1  0  0  0  0
 56 28  1  0  0  0  0
 57 28  1  0  0  0  0
  8  4  1  0  0  0  0
 16  9  1  0  0  0  0
 28 20  1  0  0  0  0
M  END
>  <FittedScore>
-28.02

$$$$
