A71EV2A-x7613a_best-RMSD
  FITTED

 42 43     0  0  0  0  0  0  0999 V2000
    8.4500   15.9456   25.9510 C    0  0  0  0  0  0  0  0  0  0  0  0
    9.5859   16.1789   24.9275 C    0  0  0  0  0  0  0  0  0  0  0  0
   10.0034   14.9120   24.1116 C    0  0  0  0  0  0  0  0  0  0  0  0
   11.4359   15.0627   23.5307 C    0  0  0  0  0  0  0  0  0  0  0  0
   11.5366   16.1831   22.0976 S    0  0  0  0  0  0  0  0  0  0  0  0
   10.3270   15.2655   21.0975 C    0  0  0  0  0  0  0  0  0  0  0  0
   10.2671   15.8004   19.6730 C    0  0  0  0  0  0  0  0  0  0  0  0
   10.6634   14.9162   18.7379 N    0  0  0  0  0  0  0  0  0  0  0  0
    9.7944   16.8752   19.3609 O    0  0  0  0  0  0  0  0  0  0  0  0
    8.9481   15.2090   21.8006 C    0  0  0  0  0  0  0  0  0  0  0  0
    8.9409   14.4641   23.1084 N    0  0  0  0  0  0  0  0  0  0  0  0
    7.9805   13.5109   23.3915 C    0  0  0  0  0  0  0  0  0  0  0  0
    7.1387   13.1372   22.5870 O    0  0  0  0  0  0  0  0  0  0  0  0
    8.0078   13.0307   24.6600 O    0  0  0  0  0  0  0  0  0  0  0  0
    7.2775   11.9667   25.1239 C    0  0  0  0  0  0  0  0  0  0  0  0
    6.2151   12.2561   25.9872 C    0  0  0  0  0  0  0  0  0  0  0  0
    5.4844   11.2075   26.5536 C    0  0  0  0  0  0  0  0  0  0  0  0
    4.1058   11.6040   27.8095 BR   0  0  0  0  0  0  0  0  0  0  0  0
    5.8027    9.8775   26.2343 C    0  0  0  0  0  0  0  0  0  0  0  0
    6.8553    9.5973   25.3491 C    0  0  0  0  0  0  0  0  0  0  0  0
    7.6344   10.6366   24.8109 C    0  0  0  0  0  0  0  0  0  0  0  0
    9.0981   10.3253   23.8168 S    0  0  0  0  0  0  0  0  0  0  0  0
    9.1471    8.5626   23.3787 C    0  0  0  0  0  0  0  0  0  0  0  0
    8.6747   15.0992   26.6040 H    0  0  0  0  0  0  0  0  0  0  0  0
    7.5068   15.7475   25.4340 H    0  0  0  0  0  0  0  0  0  0  0  0
    8.3091   16.8233   26.5901 H    0  0  0  0  0  0  0  0  0  0  0  0
   10.4467   16.5616   25.4806 H    0  0  0  0  0  0  0  0  0  0  0  0
    9.2833   16.9801   24.2469 H    0  0  0  0  0  0  0  0  0  0  0  0
   10.1741   14.1153   24.8378 H    0  0  0  0  0  0  0  0  0  0  0  0
   11.8046   14.0782   23.2226 H    0  0  0  0  0  0  0  0  0  0  0  0
   12.1410   15.4147   24.2868 H    0  0  0  0  0  0  0  0  0  0  0  0
   10.6919   14.2270   21.0770 H    0  0  0  0  0  0  0  0  0  0  0  0
   10.8565   13.9537   19.0074 H    0  0  0  0  0  0  0  0  0  0  0  0
   10.6964   15.1723   17.7562 H    0  0  0  0  0  0  0  0  0  0  0  0
    8.2555   14.7610   21.0819 H    0  0  0  0  0  0  0  0  0  0  0  0
    8.5669   16.2202   21.9715 H    0  0  0  0  0  0  0  0  0  0  0  0
    5.9865   13.2925   26.2278 H    0  0  0  0  0  0  0  0  0  0  0  0
    5.2472    9.0510   26.6697 H    0  0  0  0  0  0  0  0  0  0  0  0
    7.0712    8.5584   25.1243 H    0  0  0  0  0  0  0  0  0  0  0  0
    9.2658    7.9465   24.2695 H    0  0  0  0  0  0  0  0  0  0  0  0
   10.0032    8.3947   22.7240 H    0  0  0  0  0  0  0  0  0  0  0  0
    8.2401    8.2775   22.8429 H    0  0  0  0  0  0  0  0  0  0  0  0
 11 12  1  0  0  0  0
 10 11  1  0  0  0  0
  6 10  1  0  0  0  0
  5  6  1  0  0  0  0
  4  5  1  0  0  0  0
  3  4  1  0  0  0  0
  2  3  1  0  0  0  0
  1  2  1  0  0  0  0
 24  1  1  0  0  0  0
 25  1  1  0  0  0  0
 26  1  1  0  0  0  0
 27  2  1  0  0  0  0
 28  2  1  0  0  0  0
 29  3  1  0  0  0  0
 30  4  1  0  0  0  0
 31  4  1  0  0  0  0
  7  6  1  0  0  0  0
 32  6  1  0  0  0  0
  8  7  1  0  0  0  0
  9  7  2  0  0  0  0
 33  8  1  0  0  0  0
 34  8  1  0  0  0  0
 35 10  1  0  0  0  0
 36 10  1  0  0  0  0
 13 12  2  0  0  0  0
 14 12  1  0  0  0  0
 15 14  1  0  0  0  0
 16 15  2  0  0  0  0
 17 16  1  0  0  0  0
 37 16  1  0  0  0  0
 18 17  1  0  0  0  0
 19 17  2  0  0  0  0
 20 19  1  0  0  0  0
 38 19  1  0  0  0  0
 21 20  2  0  0  0  0
 39 20  1  0  0  0  0
 22 21  1  0  0  0  0
 23 22  1  0  0  0  0
 40 23  1  0  0  0  0
 41 23  1  0  0  0  0
 42 23  1  0  0  0  0
 11  3  1  0  0  0  0
 21 15  1  0  0  0  0
M  END
>  <FittedScore>
-29.15

$$$$
