A71EV2A-x7613a_lowest-energy
  FITTED

 42 43     0  0  0  0  0  0  0999 V2000
    8.1634   15.9942   25.8725 C    0  0  0  0  0  0  0  0  0  0  0  0
    9.3958   16.2077   24.9574 C    0  0  0  0  0  0  0  0  0  0  0  0
    9.8488   14.9403   24.1616 C    0  0  0  0  0  0  0  0  0  0  0  0
   11.2907   15.1031   23.5871 C    0  0  0  0  0  0  0  0  0  0  0  0
   11.4065   16.1841   22.1279 S    0  0  0  0  0  0  0  0  0  0  0  0
   10.1739   15.2663   21.1521 C    0  0  0  0  0  0  0  0  0  0  0  0
   10.1191   15.7876   19.7241 C    0  0  0  0  0  0  0  0  0  0  0  0
   10.5651   14.9259   18.7858 N    0  0  0  0  0  0  0  0  0  0  0  0
    9.6927   16.8857   19.4140 O    0  0  0  0  0  0  0  0  0  0  0  0
    8.7954   15.2300   21.8684 C    0  0  0  0  0  0  0  0  0  0  0  0
    8.8063   14.4589   23.1591 N    0  0  0  0  0  0  0  0  0  0  0  0
    7.8786   13.4793   23.4342 C    0  0  0  0  0  0  0  0  0  0  0  0
    7.0393   13.0924   22.6304 O    0  0  0  0  0  0  0  0  0  0  0  0
    7.9288   12.9923   24.6997 O    0  0  0  0  0  0  0  0  0  0  0  0
    7.2159   11.9198   25.1774 C    0  0  0  0  0  0  0  0  0  0  0  0
    6.1616   12.1958   26.0571 C    0  0  0  0  0  0  0  0  0  0  0  0
    5.4487   11.1421   26.6379 C    0  0  0  0  0  0  0  0  0  0  0  0
    4.0928   11.5253   27.9182 BR   0  0  0  0  0  0  0  0  0  0  0  0
    5.7664    9.8148   26.3086 C    0  0  0  0  0  0  0  0  0  0  0  0
    6.8113    9.5440   25.4117 C    0  0  0  0  0  0  0  0  0  0  0  0
    7.5780   10.5906   24.8593 C    0  0  0  0  0  0  0  0  0  0  0  0
    9.0259   10.3071   23.8276 S    0  0  0  0  0  0  0  0  0  0  0  0
    9.0675    8.5415   23.4063 C    0  0  0  0  0  0  0  0  0  0  0  0
    8.3344   15.1787   26.5792 H    0  0  0  0  0  0  0  0  0  0  0  0
    7.2664   15.7612   25.2922 H    0  0  0  0  0  0  0  0  0  0  0  0
    7.9611   16.9028   26.4483 H    0  0  0  0  0  0  0  0  0  0  0  0
   10.2158   16.5571   25.5902 H    0  0  0  0  0  0  0  0  0  0  0  0
    9.1804   17.0257   24.2672 H    0  0  0  0  0  0  0  0  0  0  0  0
   10.0299   14.1654   24.9091 H    0  0  0  0  0  0  0  0  0  0  0  0
   11.6753   14.1193   23.2986 H    0  0  0  0  0  0  0  0  0  0  0  0
   11.9795   15.4804   24.3475 H    0  0  0  0  0  0  0  0  0  0  0  0
   10.5324   14.2283   21.1299 H    0  0  0  0  0  0  0  0  0  0  0  0
   10.7785   13.9638   19.0405 H    0  0  0  0  0  0  0  0  0  0  0  0
   10.6660   15.2310   17.8238 H    0  0  0  0  0  0  0  0  0  0  0  0
    8.0719   14.8154   21.1592 H    0  0  0  0  0  0  0  0  0  0  0  0
    8.4401   16.2460   22.0614 H    0  0  0  0  0  0  0  0  0  0  0  0
    5.9203   13.2271   26.3002 H    0  0  0  0  0  0  0  0  0  0  0  0
    5.2133    8.9844   26.7460 H    0  0  0  0  0  0  0  0  0  0  0  0
    7.0299    8.5041   25.1940 H    0  0  0  0  0  0  0  0  0  0  0  0
    9.8977    8.3436   22.7251 H    0  0  0  0  0  0  0  0  0  0  0  0
    8.1398    8.2524   22.9093 H    0  0  0  0  0  0  0  0  0  0  0  0
    9.2189    7.9495   24.3110 H    0  0  0  0  0  0  0  0  0  0  0  0
 11 12  1  0  0  0  0
 10 11  1  0  0  0  0
  6 10  1  0  0  0  0
  5  6  1  0  0  0  0
  4  5  1  0  0  0  0
  3  4  1  0  0  0  0
  2  3  1  0  0  0  0
  1  2  1  0  0  0  0
 24  1  1  0  0  0  0
 25  1  1  0  0  0  0
 26  1  1  0  0  0  0
 27  2  1  0  0  0  0
 28  2  1  0  0  0  0
 29  3  1  0  0  0  0
 30  4  1  0  0  0  0
 31  4  1  0  0  0  0
  7  6  1  0  0  0  0
 32  6  1  0  0  0  0
  8  7  1  0  0  0  0
  9  7  2  0  0  0  0
 33  8  1  0  0  0  0
 34  8  1  0  0  0  0
 35 10  1  0  0  0  0
 36 10  1  0  0  0  0
 13 12  2  0  0  0  0
 14 12  1  0  0  0  0
 15 14  1  0  0  0  0
 16 15  2  0  0  0  0
 17 16  1  0  0  0  0
 37 16  1  0  0  0  0
 18 17  1  0  0  0  0
 19 17  2  0  0  0  0
 20 19  1  0  0  0  0
 38 19  1  0  0  0  0
 21 20  2  0  0  0  0
 39 20  1  0  0  0  0
 22 21  1  0  0  0  0
 23 22  1  0  0  0  0
 40 23  1  0  0  0  0
 41 23  1  0  0  0  0
 42 23  1  0  0  0  0
 11  3  1  0  0  0  0
 21 15  1  0  0  0  0
M  END
>  <FittedScore>
-28.92

$$$$
