A71EV2A-x4724a_lowest-energy
  FITTED

 40 41     0  0  0  0  0  0  0999 V2000
    9.6062   16.7784   19.3315 O    0  0  0  0  0  0  0  0  0  0  0  0
   10.1762   15.7728   19.7108 C    0  0  0  0  0  0  0  0  0  0  0  0
   10.7852   14.9899   18.7993 N    0  0  0  0  0  0  0  0  0  0  0  0
   10.1206   15.2149   21.1486 C    0  0  0  0  0  0  0  0  0  0  0  0
   11.2992   15.7275   22.0532 C    0  0  0  0  0  0  0  0  0  0  0  0
   12.4577   15.3111   21.5502 F    0  0  0  0  0  0  0  0  0  0  0  0
   11.3996   17.0708   22.0684 F    0  0  0  0  0  0  0  0  0  0  0  0
   11.1834   15.2325   23.5224 C    0  0  0  0  0  0  0  0  0  0  0  0
    9.7660   15.5291   24.0751 C    0  0  0  0  0  0  0  0  0  0  0  0
    8.7360   15.4130   21.8484 C    0  0  0  0  0  0  0  0  0  0  0  0
    8.7126   14.8483   23.2403 N    0  0  0  0  0  0  0  0  0  0  0  0
    7.9473   13.7590   23.6179 C    0  0  0  0  0  0  0  0  0  0  0  0
    7.1682   13.2237   22.8423 O    0  0  0  0  0  0  0  0  0  0  0  0
    8.1670   13.1725   25.0277 C    0  0  0  0  0  0  0  0  0  0  0  0
    7.4286   11.8660   25.3371 C    0  0  0  0  0  0  0  0  0  0  0  0
    7.8643   10.6105   24.8409 C    0  0  0  0  0  0  0  0  0  0  0  0
    9.3245   10.5259   23.7918 S    0  0  0  0  0  0  0  0  0  0  0  0
    9.7498    8.7718   23.5692 C    0  0  0  0  0  0  0  0  0  0  0  0
    6.2940   11.9340   26.1698 C    0  0  0  0  0  0  0  0  0  0  0  0
    5.5993   10.7746   26.5297 C    0  0  0  0  0  0  0  0  0  0  0  0
    6.0196    9.5377   26.0368 C    0  0  0  0  0  0  0  0  0  0  0  0
    7.1275    9.4562   25.1851 C    0  0  0  0  0  0  0  0  0  0  0  0
   11.0652   14.0444   19.0561 H    0  0  0  0  0  0  0  0  0  0  0  0
   10.7883   15.2669   17.8240 H    0  0  0  0  0  0  0  0  0  0  0  0
   10.2362   14.1253   21.0851 H    0  0  0  0  0  0  0  0  0  0  0  0
   11.3801   14.1551   23.5710 H    0  0  0  0  0  0  0  0  0  0  0  0
   11.9376   15.7142   24.1503 H    0  0  0  0  0  0  0  0  0  0  0  0
    9.7474   15.2616   25.1298 H    0  0  0  0  0  0  0  0  0  0  0  0
    9.5868   16.6077   24.0805 H    0  0  0  0  0  0  0  0  0  0  0  0
    7.9662   14.9717   21.2097 H    0  0  0  0  0  0  0  0  0  0  0  0
    8.4944   16.4810   21.8895 H    0  0  0  0  0  0  0  0  0  0  0  0
    9.2328   13.0016   25.2006 H    0  0  0  0  0  0  0  0  0  0  0  0
    7.8831   13.9324   25.7608 H    0  0  0  0  0  0  0  0  0  0  0  0
    8.9785    8.2731   22.9790 H    0  0  0  0  0  0  0  0  0  0  0  0
    9.8676    8.2778   24.5357 H    0  0  0  0  0  0  0  0  0  0  0  0
   10.6946    8.7229   23.0255 H    0  0  0  0  0  0  0  0  0  0  0  0
    5.9509   12.8951   26.5459 H    0  0  0  0  0  0  0  0  0  0  0  0
    4.7310   10.8410   27.1793 H    0  0  0  0  0  0  0  0  0  0  0  0
    5.4710    8.6367   26.2995 H    0  0  0  0  0  0  0  0  0  0  0  0
    7.3903    8.4783   24.8019 H    0  0  0  0  0  0  0  0  0  0  0  0
 11 12  1  0  0  0  0
  9 11  1  0  0  0  0
  8  9  1  0  0  0  0
  5  8  1  0  0  0  0
  4  5  1  0  0  0  0
  2  4  1  0  0  0  0
  1  2  2  0  0  0  0
  3  2  1  0  0  0  0
 23  3  1  0  0  0  0
 24  3  1  0  0  0  0
 25  4  1  0  0  0  0
  6  5  1  0  0  0  0
  7  5  1  0  0  0  0
 26  8  1  0  0  0  0
 27  8  1  0  0  0  0
 28  9  1  0  0  0  0
 29  9  1  0  0  0  0
 10  4  1  0  0  0  0
 30 10  1  0  0  0  0
 31 10  1  0  0  0  0
 13 12  2  0  0  0  0
 14 12  1  0  0  0  0
 32 14  1  0  0  0  0
 33 14  1  0  0  0  0
 15 14  1  0  0  0  0
 16 15  1  0  0  0  0
 22 16  2  0  0  0  0
 17 16  1  0  0  0  0
 18 17  1  0  0  0  0
 34 18  1  0  0  0  0
 35 18  1  0  0  0  0
 36 18  1  0  0  0  0
 19 15  2  0  0  0  0
 37 19  1  0  0  0  0
 20 19  1  0  0  0  0
 38 20  1  0  0  0  0
 21 20  2  0  0  0  0
 39 21  1  0  0  0  0
 40 22  1  0  0  0  0
 11 10  1  0  0  0  0
 22 21  1  0  0  0  0
M  END
>  <FittedScore>
-31.64

$$$$
