A71EV2A-x5833a_lowest-energy
  FITTED

 47 49     0  0  0  0  0  0  0999 V2000
    9.5276    8.5509   23.6204 C    0  0  0  0  0  0  0  0  0  0  0  0
    9.5475   10.1951   24.3808 S    0  0  0  0  0  0  0  0  0  0  0  0
    7.8912   10.4944   25.0102 C    0  0  0  0  0  0  0  0  0  0  0  0
    7.0316    9.4204   25.2941 C    0  0  0  0  0  0  0  0  0  0  0  0
    5.7400    9.6267   25.7788 C    0  0  0  0  0  0  0  0  0  0  0  0
    5.2569   10.9262   26.0022 C    0  0  0  0  0  0  0  0  0  0  0  0
    3.9720   11.1341   26.4693 N    0  0  0  0  0  0  0  0  0  0  0  0
    3.1508   12.1715   26.1302 C    0  0  0  0  0  0  0  0  0  0  0  0
    1.9411   12.0456   26.7851 C    0  0  0  0  0  0  0  0  0  0  0  0
    1.9348   10.8379   27.6180 N    0  0  0  0  0  0  0  0  0  0  0  0
    3.2900   10.3278   27.3479 C    0  0  0  0  0  0  0  0  0  0  0  0
    6.1103   12.0100   25.7228 C    0  0  0  0  0  0  0  0  0  0  0  0
    7.4157   11.8106   25.2379 C    0  0  0  0  0  0  0  0  0  0  0  0
    8.2488   13.0658   24.9518 C    0  0  0  0  0  0  0  0  0  0  0  0
    8.1434   13.5977   23.5171 C    0  0  0  0  0  0  0  0  0  0  0  0
    7.3336   13.1084   22.7392 O    0  0  0  0  0  0  0  0  0  0  0  0
    8.9559   14.6542   23.1500 N    0  0  0  0  0  0  0  0  0  0  0  0
    9.7908   15.5126   24.0750 C    0  0  0  0  0  0  0  0  0  0  0  0
   11.2372   15.8135   23.5823 C    0  0  0  0  0  0  0  0  0  0  0  0
   11.2492   16.3180   22.1179 C    0  0  0  0  0  0  0  0  0  0  0  0
   10.4499   15.3405   21.2144 C    0  0  0  0  0  0  0  0  0  0  0  0
   10.4711   15.7842   19.7539 C    0  0  0  0  0  0  0  0  0  0  0  0
   10.9172   14.8538   18.8829 N    0  0  0  0  0  0  0  0  0  0  0  0
    9.8741   16.7653   19.3508 O    0  0  0  0  0  0  0  0  0  0  0  0
    8.9952   15.1826   21.7496 C    0  0  0  0  0  0  0  0  0  0  0  0
    8.6698    8.4759   22.9483 H    0  0  0  0  0  0  0  0  0  0  0  0
    9.4641    7.7777   24.3912 H    0  0  0  0  0  0  0  0  0  0  0  0
   10.4432    8.3920   23.0508 H    0  0  0  0  0  0  0  0  0  0  0  0
    7.3349    8.3914   25.1418 H    0  0  0  0  0  0  0  0  0  0  0  0
    5.1122    8.7543   25.9503 H    0  0  0  0  0  0  0  0  0  0  0  0
    3.4020   12.9718   25.4334 H    0  0  0  0  0  0  0  0  0  0  0  0
    1.0887   12.7152   26.7125 H    0  0  0  0  0  0  0  0  0  0  0  0
    3.6731    9.4273   27.8234 H    0  0  0  0  0  0  0  0  0  0  0  0
    5.7663   13.0303   25.8830 H    0  0  0  0  0  0  0  0  0  0  0  0
    9.2952   12.8694   25.1942 H    0  0  0  0  0  0  0  0  0  0  0  0
    7.9417   13.8619   25.6387 H    0  0  0  0  0  0  0  0  0  0  0  0
    9.9063   15.0940   25.0756 H    0  0  0  0  0  0  0  0  0  0  0  0
    9.2628   16.4606   24.2283 H    0  0  0  0  0  0  0  0  0  0  0  0
   11.8509   14.9079   23.6716 H    0  0  0  0  0  0  0  0  0  0  0  0
   11.6970   16.5648   24.2308 H    0  0  0  0  0  0  0  0  0  0  0  0
   12.2803   16.4049   21.7690 H    0  0  0  0  0  0  0  0  0  0  0  0
   10.8060   17.3209   22.0723 H    0  0  0  0  0  0  0  0  0  0  0  0
   10.9235   14.3527   21.3077 H    0  0  0  0  0  0  0  0  0  0  0  0
   11.1168   13.9108   19.2061 H    0  0  0  0  0  0  0  0  0  0  0  0
   10.9077   15.0448   17.8851 H    0  0  0  0  0  0  0  0  0  0  0  0
    8.4670   14.5353   21.0453 H    0  0  0  0  0  0  0  0  0  0  0  0
    8.4679   16.1413   21.7239 H    0  0  0  0  0  0  0  0  0  0  0  0
 14 15  1  0  0  0  0
 13 14  1  0  0  0  0
 12 13  2  0  0  0  0
  6 12  1  0  0  0  0
  5  6  2  0  0  0  0
  4  5  1  0  0  0  0
  3  4  2  0  0  0  0
  2  3  1  0  0  0  0
  1  2  1  0  0  0  0
 26  1  1  0  0  0  0
 27  1  1  0  0  0  0
 28  1  1  0  0  0  0
 29  4  1  0  0  0  0
 30  5  1  0  0  0  0
  7  6  1  0  0  0  0
  8  7  1  0  0  0  0
  9  8  2  0  0  0  0
 31  8  1  0  0  0  0
 10  9  1  0  0  0  0
 32  9  1  0  0  0  0
 11 10  2  0  0  0  0
 33 11  1  0  0  0  0
 34 12  1  0  0  0  0
 35 14  1  0  0  0  0
 36 14  1  0  0  0  0
 16 15  2  0  0  0  0
 17 15  1  0  0  0  0
 18 17  1  0  0  0  0
 19 18  1  0  0  0  0
 37 18  1  0  0  0  0
 38 18  1  0  0  0  0
 20 19  1  0  0  0  0
 39 19  1  0  0  0  0
 40 19  1  0  0  0  0
 21 20  1  0  0  0  0
 41 20  1  0  0  0  0
 42 20  1  0  0  0  0
 22 21  1  0  0  0  0
 25 21  1  0  0  0  0
 43 21  1  0  0  0  0
 23 22  1  0  0  0  0
 24 22  2  0  0  0  0
 44 23  1  0  0  0  0
 45 23  1  0  0  0  0
 46 25  1  0  0  0  0
 47 25  1  0  0  0  0
 11  7  1  0  0  0  0
 13  3  1  0  0  0  0
 25 17  1  0  0  0  0
M  END
>  <FittedScore>
-33.51

$$$$
