A71EV2A-x3371a_best-RMSD
  FITTED

 38 40     0  0  0  0  0  0  0999 V2000
    9.1255   14.3958   24.8418 O    0  0  0  0  0  0  0  0  0  0  0  0
    9.6031   13.5157   24.1524 C    0  0  0  0  0  0  0  0  0  0  0  0
    9.1485   12.0779   24.2062 C    0  0  0  0  0  0  0  0  0  0  0  0
    8.1037   11.5608   24.9693 C    0  0  0  0  0  0  0  0  0  0  0  0
    7.2010   12.1548   25.8685 C    0  0  0  0  0  0  0  0  0  0  0  0
    6.2004   11.3513   26.4532 C    0  0  0  0  0  0  0  0  0  0  0  0
    6.1163    9.9800   26.1433 C    0  0  0  0  0  0  0  0  0  0  0  0
    7.0353    9.3978   25.2543 C    0  0  0  0  0  0  0  0  0  0  0  0
    8.0228   10.2148   24.6853 C    0  0  0  0  0  0  0  0  0  0  0  0
    9.0161    9.9065   23.8061 N    0  0  0  0  0  0  0  0  0  0  0  0
    9.2782    8.5868   23.2251 C    0  0  0  0  0  0  0  0  0  0  0  0
    9.7598   10.9778   23.4034 N    0  0  0  0  0  0  0  0  0  0  0  0
   10.5083   13.7701   23.1665 N    0  0  0  0  0  0  0  0  0  0  0  0
   10.9229   15.1169   22.7193 C    0  0  0  0  0  0  0  0  0  0  0  0
   11.9480   15.1062   21.5635 C    0  0  0  0  0  0  0  0  0  0  0  0
   12.1920   16.4404   20.8591 C    0  0  0  0  0  0  0  0  0  0  0  0
   11.1594   17.4986   20.6831 N    0  0  0  0  0  0  0  0  0  0  0  0
   11.8537   18.4517   19.7998 C    0  0  0  0  0  0  0  0  0  0  0  0
   13.3238   16.7610   20.1166 C    0  0  0  0  0  0  0  0  0  0  0  0
   13.0899   17.9619   19.5331 N    0  0  0  0  0  0  0  0  0  0  0  0
   14.0338   18.6198   18.6143 C    0  0  0  0  0  0  0  0  0  0  0  0
    7.2600   13.2073   26.1201 H    0  0  0  0  0  0  0  0  0  0  0  0
    5.4915   11.7941   27.1453 H    0  0  0  0  0  0  0  0  0  0  0  0
    5.3401    9.3659   26.5914 H    0  0  0  0  0  0  0  0  0  0  0  0
    6.9762    8.3354   25.0249 H    0  0  0  0  0  0  0  0  0  0  0  0
    8.3790    8.1795   22.7551 H    0  0  0  0  0  0  0  0  0  0  0  0
    9.6036    7.8780   23.9944 H    0  0  0  0  0  0  0  0  0  0  0  0
   10.0607    8.6118   22.4582 H    0  0  0  0  0  0  0  0  0  0  0  0
   10.7886   12.9938   22.5836 H    0  0  0  0  0  0  0  0  0  0  0  0
   10.0265   15.6658   22.4166 H    0  0  0  0  0  0  0  0  0  0  0  0
   11.3570   15.6527   23.5691 H    0  0  0  0  0  0  0  0  0  0  0  0
   12.8934   14.7208   21.9528 H    0  0  0  0  0  0  0  0  0  0  0  0
   11.6094   14.3931   20.8065 H    0  0  0  0  0  0  0  0  0  0  0  0
   11.4060   19.3682   19.4269 H    0  0  0  0  0  0  0  0  0  0  0  0
   14.2262   16.1617   20.0005 H    0  0  0  0  0  0  0  0  0  0  0  0
   14.9899   18.8196   19.1025 H    0  0  0  0  0  0  0  0  0  0  0  0
   13.6589   19.5814   18.2523 H    0  0  0  0  0  0  0  0  0  0  0  0
   14.2344   18.0047   17.7337 H    0  0  0  0  0  0  0  0  0  0  0  0
  2 13  1  0  0  0  0
  3  2  1  0  0  0  0
 12  3  2  0  0  0  0
  1  2  2  0  0  0  0
  4  3  1  0  0  0  0
  5  4  1  0  0  0  0
 22  5  1  0  0  0  0
  6  5  2  0  0  0  0
 23  6  1  0  0  0  0
  7  6  1  0  0  0  0
 24  7  1  0  0  0  0
  8  7  2  0  0  0  0
 25  8  1  0  0  0  0
  9  8  1  0  0  0  0
 10  9  1  0  0  0  0
 11 10  1  0  0  0  0
 26 11  1  0  0  0  0
 27 11  1  0  0  0  0
 28 11  1  0  0  0  0
 29 13  1  0  0  0  0
 14 13  1  0  0  0  0
 30 14  1  0  0  0  0
 31 14  1  0  0  0  0
 15 14  1  0  0  0  0
 32 15  1  0  0  0  0
 33 15  1  0  0  0  0
 16 15  1  0  0  0  0
 17 16  1  0  0  0  0
 18 17  2  0  0  0  0
 34 18  1  0  0  0  0
 19 16  2  0  0  0  0
 35 19  1  0  0  0  0
 20 18  1  0  0  0  0
 21 20  1  0  0  0  0
 36 21  1  0  0  0  0
 37 21  1  0  0  0  0
 38 21  1  0  0  0  0
  9  4  2  0  0  0  0
 12 10  1  0  0  0  0
 20 19  1  0  0  0  0
M  END
>  <FittedScore>
-23.74

$$$$
