A71EV2A-x3522b_best-RMSD
  FITTED

 38 39     0  0  0  0  0  0  0999 V2000
    5.9586   10.6851   27.0214 CL   0  0  0  0  0  0  0  0  0  0  0  0
    7.0110   11.0195   25.6720 C    0  0  0  0  0  0  0  0  0  0  0  0
    7.5950    9.9093   25.0552 C    0  0  0  0  0  0  0  0  0  0  0  0
    8.5645   10.0553   24.0558 C    0  0  0  0  0  0  0  0  0  0  0  0
    9.2071    8.8450   23.4011 C    0  0  0  0  0  0  0  0  0  0  0  0
    8.9549   11.3406   23.6662 C    0  0  0  0  0  0  0  0  0  0  0  0
    8.3679   12.4686   24.2418 C    0  0  0  0  0  0  0  0  0  0  0  0
    7.3762   12.3178   25.2519 C    0  0  0  0  0  0  0  0  0  0  0  0
    6.7410   13.4594   25.8462 N    0  0  0  0  0  0  0  0  0  0  0  0
    7.3453   14.5027   26.4646 C    0  0  0  0  0  0  0  0  0  0  0  0
    8.5374   14.4847   26.6914 O    0  0  0  0  0  0  0  0  0  0  0  0
    6.4540   15.6416   26.9302 C    0  0  0  0  0  0  0  0  0  0  0  0
    7.0635   16.3522   28.0480 O    0  0  0  0  0  0  0  0  0  0  0  0
    6.4653   17.5975   28.4891 C    0  0  0  0  0  0  0  0  0  0  0  0
    8.7994   13.7020   23.7828 O    0  0  0  0  0  0  0  0  0  0  0  0
    8.3799   14.2130   22.4909 C    0  0  0  0  0  0  0  0  0  0  0  0
    6.8913   14.5411   22.4811 C    0  0  0  0  0  0  0  0  0  0  0  0
    6.4975   15.6008   23.2538 N    0  0  0  0  0  0  0  0  0  0  0  0
    5.1697   15.8875   23.3126 C    0  0  0  0  0  0  0  0  0  0  0  0
    4.2326   15.1581   22.5643 C    0  0  0  0  0  0  0  0  0  0  0  0
    4.7039   14.0834   21.7870 C    0  0  0  0  0  0  0  0  0  0  0  0
    6.0316   13.7608   21.7500 N    0  0  0  0  0  0  0  0  0  0  0  0
    7.2982    8.9121   25.3743 H    0  0  0  0  0  0  0  0  0  0  0  0
   10.2928    8.8880   23.5202 H    0  0  0  0  0  0  0  0  0  0  0  0
    8.8596    7.9025   23.8323 H    0  0  0  0  0  0  0  0  0  0  0  0
    8.9800    8.8232   22.3328 H    0  0  0  0  0  0  0  0  0  0  0  0
    9.7127   11.4661   22.8964 H    0  0  0  0  0  0  0  0  0  0  0  0
    5.7376   13.3848   25.9067 H    0  0  0  0  0  0  0  0  0  0  0  0
    6.3119   16.3383   26.1011 H    0  0  0  0  0  0  0  0  0  0  0  0
    5.4729   15.2763   27.2389 H    0  0  0  0  0  0  0  0  0  0  0  0
    7.0217   17.9847   29.3466 H    0  0  0  0  0  0  0  0  0  0  0  0
    5.4299   17.4289   28.7950 H    0  0  0  0  0  0  0  0  0  0  0  0
    6.5081   18.3442   27.6900 H    0  0  0  0  0  0  0  0  0  0  0  0
    8.6509   13.5056   21.7010 H    0  0  0  0  0  0  0  0  0  0  0  0
    8.9587   15.1214   22.3061 H    0  0  0  0  0  0  0  0  0  0  0  0
    4.8346   16.7143   23.9353 H    0  0  0  0  0  0  0  0  0  0  0  0
    3.1763   15.4184   22.5892 H    0  0  0  0  0  0  0  0  0  0  0  0
    3.9915   13.4987   21.2062 H    0  0  0  0  0  0  0  0  0  0  0  0
  2  8  2  0  0  0  0
  3  2  1  0  0  0  0
 23  3  1  0  0  0  0
  1  2  1  0  0  0  0
  4  3  2  0  0  0  0
  5  4  1  0  0  0  0
 24  5  1  0  0  0  0
 25  5  1  0  0  0  0
 26  5  1  0  0  0  0
  6  4  1  0  0  0  0
 27  6  1  0  0  0  0
  7  6  2  0  0  0  0
  9  8  1  0  0  0  0
 28  9  1  0  0  0  0
 10  9  1  0  0  0  0
 11 10  2  0  0  0  0
 12 10  1  0  0  0  0
 29 12  1  0  0  0  0
 30 12  1  0  0  0  0
 13 12  1  0  0  0  0
 14 13  1  0  0  0  0
 31 14  1  0  0  0  0
 32 14  1  0  0  0  0
 33 14  1  0  0  0  0
 15  7  1  0  0  0  0
 16 15  1  0  0  0  0
 34 16  1  0  0  0  0
 35 16  1  0  0  0  0
 17 16  1  0  0  0  0
 22 17  2  0  0  0  0
 18 17  1  0  0  0  0
 19 18  2  0  0  0  0
 36 19  1  0  0  0  0
 20 19  1  0  0  0  0
 37 20  1  0  0  0  0
 21 20  2  0  0  0  0
 38 21  1  0  0  0  0
  8  7  1  0  0  0  0
 22 21  1  0  0  0  0
M  END
>  <FittedScore>
-30.70

$$$$
