A71EV2A-x3522b_lowest-energy
  FITTED

 38 39     0  0  0  0  0  0  0999 V2000
    6.1916   10.3949   26.7531 CL   0  0  0  0  0  0  0  0  0  0  0  0
    7.2689   10.8236   25.4507 C    0  0  0  0  0  0  0  0  0  0  0  0
    7.9209    9.7824   24.8016 C    0  0  0  0  0  0  0  0  0  0  0  0
    8.8673   10.0246   23.7998 C    0  0  0  0  0  0  0  0  0  0  0  0
    9.5834    8.8663   23.1353 C    0  0  0  0  0  0  0  0  0  0  0  0
    9.1576   11.3419   23.4308 C    0  0  0  0  0  0  0  0  0  0  0  0
    8.5019   12.4120   24.0567 C    0  0  0  0  0  0  0  0  0  0  0  0
    7.5613   12.1544   25.0785 C    0  0  0  0  0  0  0  0  0  0  0  0
    6.8833   13.2269   25.7610 N    0  0  0  0  0  0  0  0  0  0  0  0
    7.4574   14.2515   26.4308 C    0  0  0  0  0  0  0  0  0  0  0  0
    8.6492   14.2674   26.6638 O    0  0  0  0  0  0  0  0  0  0  0  0
    6.4931   15.2133   27.0999 C    0  0  0  0  0  0  0  0  0  0  0  0
    7.2058   16.3537   27.6643 O    0  0  0  0  0  0  0  0  0  0  0  0
    6.4674   17.3545   28.4086 C    0  0  0  0  0  0  0  0  0  0  0  0
    8.8295   13.6926   23.6289 O    0  0  0  0  0  0  0  0  0  0  0  0
    8.2721   14.2409   22.4057 C    0  0  0  0  0  0  0  0  0  0  0  0
    6.7663   14.4630   22.5064 C    0  0  0  0  0  0  0  0  0  0  0  0
    6.3255   15.4816   23.3126 N    0  0  0  0  0  0  0  0  0  0  0  0
    4.9792   15.6623   23.4155 C    0  0  0  0  0  0  0  0  0  0  0  0
    4.0774   14.8862   22.6682 C    0  0  0  0  0  0  0  0  0  0  0  0
    4.6031   13.8783   21.8391 C    0  0  0  0  0  0  0  0  0  0  0  0
    5.9455   13.6420   21.7760 N    0  0  0  0  0  0  0  0  0  0  0  0
    7.7072    8.7575   25.1018 H    0  0  0  0  0  0  0  0  0  0  0  0
   10.6240    8.8221   23.4726 H    0  0  0  0  0  0  0  0  0  0  0  0
    9.5756    8.9806   22.0460 H    0  0  0  0  0  0  0  0  0  0  0  0
    9.1148    7.9038   23.3573 H    0  0  0  0  0  0  0  0  0  0  0  0
    9.8933   11.5372   22.6517 H    0  0  0  0  0  0  0  0  0  0  0  0
    5.9043   13.0522   25.9275 H    0  0  0  0  0  0  0  0  0  0  0  0
    5.7676   15.5771   26.3673 H    0  0  0  0  0  0  0  0  0  0  0  0
    5.9511   14.6868   27.8897 H    0  0  0  0  0  0  0  0  0  0  0  0
    7.1720   18.1041   28.7682 H    0  0  0  0  0  0  0  0  0  0  0  0
    5.9645   16.9252   29.2778 H    0  0  0  0  0  0  0  0  0  0  0  0
    5.7285   17.8325   27.7626 H    0  0  0  0  0  0  0  0  0  0  0  0
    8.5322   13.5883   21.5666 H    0  0  0  0  0  0  0  0  0  0  0  0
    8.7700   15.1957   22.2196 H    0  0  0  0  0  0  0  0  0  0  0  0
    4.5999   16.4300   24.0844 H    0  0  0  0  0  0  0  0  0  0  0  0
    3.0051   15.0550   22.7345 H    0  0  0  0  0  0  0  0  0  0  0  0
    3.9263   13.2548   21.2551 H    0  0  0  0  0  0  0  0  0  0  0  0
  2  8  2  0  0  0  0
  3  2  1  0  0  0  0
 23  3  1  0  0  0  0
  1  2  1  0  0  0  0
  4  3  2  0  0  0  0
  5  4  1  0  0  0  0
 24  5  1  0  0  0  0
 25  5  1  0  0  0  0
 26  5  1  0  0  0  0
  6  4  1  0  0  0  0
 27  6  1  0  0  0  0
  7  6  2  0  0  0  0
  9  8  1  0  0  0  0
 28  9  1  0  0  0  0
 10  9  1  0  0  0  0
 11 10  2  0  0  0  0
 12 10  1  0  0  0  0
 29 12  1  0  0  0  0
 30 12  1  0  0  0  0
 13 12  1  0  0  0  0
 14 13  1  0  0  0  0
 31 14  1  0  0  0  0
 32 14  1  0  0  0  0
 33 14  1  0  0  0  0
 15  7  1  0  0  0  0
 16 15  1  0  0  0  0
 34 16  1  0  0  0  0
 35 16  1  0  0  0  0
 17 16  1  0  0  0  0
 22 17  2  0  0  0  0
 18 17  1  0  0  0  0
 19 18  2  0  0  0  0
 36 19  1  0  0  0  0
 20 19  1  0  0  0  0
 37 20  1  0  0  0  0
 21 20  2  0  0  0  0
 38 21  1  0  0  0  0
  8  7  1  0  0  0  0
 22 21  1  0  0  0  0
M  END
>  <FittedScore>
-31.25

$$$$
