A71EV2A-x7261a_lowest-energy
  FITTED

 65 68     0  0  0  0  0  0  0999 V2000
   10.0156   16.7918   19.3326 O    0  0  0  0  0  0  0  0  0  0  0  0
   10.4281   15.7095   19.7012 C    0  0  0  0  0  0  0  0  0  0  0  0
   10.8961   14.8262   18.7999 N    0  0  0  0  0  0  0  0  0  0  0  0
   10.2670   15.1788   21.1264 C    0  0  0  0  0  0  0  0  0  0  0  0
   11.2563   15.8627   22.1164 C    0  0  0  0  0  0  0  0  0  0  0  0
   11.0040   15.4052   23.5816 C    0  0  0  0  0  0  0  0  0  0  0  0
    9.5009   15.4716   23.9795 C    0  0  0  0  0  0  0  0  0  0  0  0
    8.7983   15.3346   21.6140 C    0  0  0  0  0  0  0  0  0  0  0  0
    8.5905   14.7995   22.9921 N    0  0  0  0  0  0  0  0  0  0  0  0
    7.7264   13.7709   23.2678 C    0  0  0  0  0  0  0  0  0  0  0  0
    7.0260   13.2669   22.4045 O    0  0  0  0  0  0  0  0  0  0  0  0
    7.7896   13.2459   24.5247 O    0  0  0  0  0  0  0  0  0  0  0  0
    7.1554   12.0691   24.8974 C    0  0  0  0  0  0  0  0  0  0  0  0
    7.7371   10.8099   24.6544 C    0  0  0  0  0  0  0  0  0  0  0  0
    9.3272   10.7198   23.8245 S    0  0  0  0  0  0  0  0  0  0  0  0
    9.6377    8.9728   23.3980 C    0  0  0  0  0  0  0  0  0  0  0  0
    5.8993   12.1678   25.5112 C    0  0  0  0  0  0  0  0  0  0  0  0
    5.1468   11.0193   25.8734 C    0  0  0  0  0  0  0  0  0  0  0  0
    5.7621    9.7629   25.6440 C    0  0  0  0  0  0  0  0  0  0  0  0
    7.0319    9.6636   25.0594 C    0  0  0  0  0  0  0  0  0  0  0  0
    3.7498   11.1376   26.4434 C    0  0  0  0  0  0  0  0  0  0  0  0
    2.8896   12.2155   26.0852 C    0  0  0  0  0  0  0  0  0  0  0  0
    1.6316   12.3576   26.5796 N    0  0  0  0  0  0  0  0  0  0  0  0
    1.1212   11.4387   27.4480 C    0  0  0  0  0  0  0  0  0  0  0  0
    1.8977   10.3262   27.8337 C    0  0  0  0  0  0  0  0  0  0  0  0
    3.2047   10.1804   27.3436 C    0  0  0  0  0  0  0  0  0  0  0  0
   -0.1682   11.6393   27.9349 N    0  0  0  0  0  0  0  0  0  0  0  0
   -0.5062   11.4444   29.3753 C    0  0  0  0  0  0  0  0  0  0  0  0
   -0.9937   12.7804   30.0185 C    0  0  0  0  0  0  0  0  0  0  0  0
   -2.1129   13.4671   29.2223 N    0  0  0  0  0  0  0  0  0  0  0  0
   -3.4807   12.8162   29.4182 C    0  0  0  0  0  0  0  0  0  0  0  0
   -1.7189   13.6152   27.7470 C    0  0  0  0  0  0  0  0  0  0  0  0
   -1.2545   12.2686   27.1163 C    0  0  0  0  0  0  0  0  0  0  0  0
   10.9320   15.0775   17.8161 H    0  0  0  0  0  0  0  0  0  0  0  0
   11.0394   13.8574   19.0854 H    0  0  0  0  0  0  0  0  0  0  0  0
   10.4882   14.1015   21.1446 H    0  0  0  0  0  0  0  0  0  0  0  0
   12.2822   15.6143   21.8346 H    0  0  0  0  0  0  0  0  0  0  0  0
   11.1665   16.9522   22.0520 H    0  0  0  0  0  0  0  0  0  0  0  0
   11.3602   14.3781   23.7116 H    0  0  0  0  0  0  0  0  0  0  0  0
   11.5861   16.0296   24.2655 H    0  0  0  0  0  0  0  0  0  0  0  0
    9.4083   15.0570   24.9839 H    0  0  0  0  0  0  0  0  0  0  0  0
    9.1974   16.5177   24.0792 H    0  0  0  0  0  0  0  0  0  0  0  0
    8.1524   14.8562   20.8731 H    0  0  0  0  0  0  0  0  0  0  0  0
    8.5006   16.3880   21.5997 H    0  0  0  0  0  0  0  0  0  0  0  0
   10.5498    8.9037   22.8023 H    0  0  0  0  0  0  0  0  0  0  0  0
    8.8041    8.5699   22.8181 H    0  0  0  0  0  0  0  0  0  0  0  0
    9.7767    8.3850   24.3064 H    0  0  0  0  0  0  0  0  0  0  0  0
    5.5073   13.1646   25.6961 H    0  0  0  0  0  0  0  0  0  0  0  0
    5.2491    8.8377   25.8959 H    0  0  0  0  0  0  0  0  0  0  0  0
    7.4403    8.6686   24.9186 H    0  0  0  0  0  0  0  0  0  0  0  0
    3.2206   12.9725   25.3806 H    0  0  0  0  0  0  0  0  0  0  0  0
    1.5078    9.5693   28.5080 H    0  0  0  0  0  0  0  0  0  0  0  0
    3.7876    9.3236   27.6760 H    0  0  0  0  0  0  0  0  0  0  0  0
   -1.2708   10.6718   29.4882 H    0  0  0  0  0  0  0  0  0  0  0  0
    0.3432   11.1022   29.9714 H    0  0  0  0  0  0  0  0  0  0  0  0
   -1.3261   12.6114   31.0464 H    0  0  0  0  0  0  0  0  0  0  0  0
   -0.1533   13.4804   30.0749 H    0  0  0  0  0  0  0  0  0  0  0  0
   -2.1999   14.4250   29.6014 H    0  0  0  0  0  0  0  0  0  0  0  0
   -4.2394   13.3857   28.8759 H    0  0  0  0  0  0  0  0  0  0  0  0
   -3.7439   12.8284   30.4786 H    0  0  0  0  0  0  0  0  0  0  0  0
   -3.4911   11.7835   29.0624 H    0  0  0  0  0  0  0  0  0  0  0  0
   -2.5538   14.0381   27.1823 H    0  0  0  0  0  0  0  0  0  0  0  0
   -0.9044   14.3443   27.6923 H    0  0  0  0  0  0  0  0  0  0  0  0
   -2.1032   11.5836   27.0348 H    0  0  0  0  0  0  0  0  0  0  0  0
   -0.9689   12.4534   26.0769 H    0  0  0  0  0  0  0  0  0  0  0  0
 13 17  2  0  0  0  0
 12 13  1  0  0  0  0
 10 12  1  0  0  0  0
  9 10  1  0  0  0  0
  7  9  1  0  0  0  0
  6  7  1  0  0  0  0
  5  6  1  0  0  0  0
  4  5  1  0  0  0  0
  2  4  1  0  0  0  0
  1  2  2  0  0  0  0
  3  2  1  0  0  0  0
 34  3  1  0  0  0  0
 35  3  1  0  0  0  0
 36  4  1  0  0  0  0
 37  5  1  0  0  0  0
 38  5  1  0  0  0  0
 39  6  1  0  0  0  0
 40  6  1  0  0  0  0
 41  7  1  0  0  0  0
 42  7  1  0  0  0  0
  8  4  1  0  0  0  0
 43  8  1  0  0  0  0
 44  8  1  0  0  0  0
 11 10  2  0  0  0  0
 14 13  1  0  0  0  0
 20 14  2  0  0  0  0
 15 14  1  0  0  0  0
 16 15  1  0  0  0  0
 45 16  1  0  0  0  0
 46 16  1  0  0  0  0
 47 16  1  0  0  0  0
 48 17  1  0  0  0  0
 18 17  1  0  0  0  0
 19 18  2  0  0  0  0
 49 19  1  0  0  0  0
 50 20  1  0  0  0  0
 21 18  1  0  0  0  0
 26 21  2  0  0  0  0
 22 21  1  0  0  0  0
 51 22  1  0  0  0  0
 23 22  2  0  0  0  0
 24 23  1  0  0  0  0
 25 24  2  0  0  0  0
 52 25  1  0  0  0  0
 53 26  1  0  0  0  0
 27 24  1  0  0  0  0
 33 27  1  0  0  0  0
 28 27  1  0  0  0  0
 54 28  1  0  0  0  0
 55 28  1  0  0  0  0
 29 28  1  0  0  0  0
 56 29  1  0  0  0  0
 57 29  1  0  0  0  0
 30 29  1  0  0  0  0
 58 30  1  0  0  0  0
 31 30  1  0  0  0  0
 59 31  1  0  0  0  0
 60 31  1  0  0  0  0
 61 31  1  0  0  0  0
 32 30  1  0  0  0  0
 62 32  1  0  0  0  0
 63 32  1  0  0  0  0
 64 33  1  0  0  0  0
 65 33  1  0  0  0  0
  9  8  1  0  0  0  0
 20 19  1  0  0  0  0
 26 25  1  0  0  0  0
 33 32  1  0  0  0  0
M  CHG  1  30   1
M  END
>  <FittedScore>
-39.53

$$$$
