A71EV2A-x6726a_lowest-energy
  FITTED

 51 53     0  0  0  0  0  0  0999 V2000
    9.3256    8.8339   23.4153 C    0  0  0  0  0  0  0  0  0  0  0  0
    9.2042   10.5593   23.9687 S    0  0  0  0  0  0  0  0  0  0  0  0
    7.7790   10.7488   25.0623 C    0  0  0  0  0  0  0  0  0  0  0  0
    7.0108    9.6188   25.4187 C    0  0  0  0  0  0  0  0  0  0  0  0
    5.9388    9.7215   26.3109 C    0  0  0  0  0  0  0  0  0  0  0  0
    5.5962   10.9608   26.8457 C    0  0  0  0  0  0  0  0  0  0  0  0
    6.3085   12.0993   26.4743 C    0  0  0  0  0  0  0  0  0  0  0  0
    7.4089   12.0301   25.5749 C    0  0  0  0  0  0  0  0  0  0  0  0
    8.1488   13.3267   25.1047 C    0  0  0  0  0  0  0  0  0  0  0  0
    7.7703   14.5266   25.8845 N    0  0  0  0  0  0  0  0  0  0  0  0
    8.4990   15.2018   26.7978 C    0  0  0  0  0  0  0  0  0  0  0  0
    9.7036   15.0828   26.8665 O    0  0  0  0  0  0  0  0  0  0  0  0
    7.6806   16.0733   27.7524 C    0  0  0  0  0  0  0  0  0  0  0  0
    8.2572   17.4814   27.9134 C    0  0  0  0  0  0  0  0  0  0  0  0
    9.1577   17.8519   29.0585 C    0  0  0  0  0  0  0  0  0  0  0  0
    7.7614   18.3961   28.9988 C    0  0  0  0  0  0  0  0  0  0  0  0
    7.9030   13.6246   23.6119 C    0  0  0  0  0  0  0  0  0  0  0  0
    6.9366   13.1438   23.0298 O    0  0  0  0  0  0  0  0  0  0  0  0
    8.8216   14.3902   22.9315 N    0  0  0  0  0  0  0  0  0  0  0  0
   10.0307   15.0847   23.4572 C    0  0  0  0  0  0  0  0  0  0  0  0
   10.7869   15.7229   22.2737 C    0  0  0  0  0  0  0  0  0  0  0  0
   10.2279   14.9518   21.0715 C    0  0  0  0  0  0  0  0  0  0  0  0
   10.3313   15.6101   19.7027 C    0  0  0  0  0  0  0  0  0  0  0  0
   10.7798   14.8052   18.7187 N    0  0  0  0  0  0  0  0  0  0  0  0
    9.8050   16.6704   19.4385 O    0  0  0  0  0  0  0  0  0  0  0  0
    8.7857   14.6158   21.4806 C    0  0  0  0  0  0  0  0  0  0  0  0
    8.4134    8.5568   22.8821 H    0  0  0  0  0  0  0  0  0  0  0  0
    9.4891    8.1719   24.2657 H    0  0  0  0  0  0  0  0  0  0  0  0
   10.1694    8.7383   22.7290 H    0  0  0  0  0  0  0  0  0  0  0  0
    7.2230    8.6289   25.0278 H    0  0  0  0  0  0  0  0  0  0  0  0
    5.3744    8.8354   26.5864 H    0  0  0  0  0  0  0  0  0  0  0  0
    4.7646   11.0400   27.5426 H    0  0  0  0  0  0  0  0  0  0  0  0
    5.9706   13.0373   26.9075 H    0  0  0  0  0  0  0  0  0  0  0  0
    9.2103   13.1302   25.2685 H    0  0  0  0  0  0  0  0  0  0  0  0
    6.7861   14.7691   25.8198 H    0  0  0  0  0  0  0  0  0  0  0  0
    7.6167   15.5646   28.7205 H    0  0  0  0  0  0  0  0  0  0  0  0
    6.6473   16.1666   27.3962 H    0  0  0  0  0  0  0  0  0  0  0  0
    8.4632   17.9552   26.9553 H    0  0  0  0  0  0  0  0  0  0  0  0
    9.9817   18.5296   28.8528 H    0  0  0  0  0  0  0  0  0  0  0  0
    9.3765   17.0945   29.8073 H    0  0  0  0  0  0  0  0  0  0  0  0
    7.6357   19.4476   28.7562 H    0  0  0  0  0  0  0  0  0  0  0  0
    7.0390   18.0101   29.7139 H    0  0  0  0  0  0  0  0  0  0  0  0
   10.6920   14.3778   23.9649 H    0  0  0  0  0  0  0  0  0  0  0  0
    9.7456   15.8613   24.1698 H    0  0  0  0  0  0  0  0  0  0  0  0
   11.8678   15.5900   22.3668 H    0  0  0  0  0  0  0  0  0  0  0  0
   10.5673   16.7929   22.2077 H    0  0  0  0  0  0  0  0  0  0  0  0
   10.7749   14.0005   21.0447 H    0  0  0  0  0  0  0  0  0  0  0  0
   10.8626   15.1630   17.7759 H    0  0  0  0  0  0  0  0  0  0  0  0
   10.9039   13.8049   18.8891 H    0  0  0  0  0  0  0  0  0  0  0  0
    8.4445   13.7326   20.9338 H    0  0  0  0  0  0  0  0  0  0  0  0
    8.0936   15.4369   21.2626 H    0  0  0  0  0  0  0  0  0  0  0  0
  8  9  1  0  0  0  0
  7  8  2  0  0  0  0
  6  7  1  0  0  0  0
  5  6  2  0  0  0  0
  4  5  1  0  0  0  0
  3  4  2  0  0  0  0
  2  3  1  0  0  0  0
  1  2  1  0  0  0  0
 27  1  1  0  0  0  0
 28  1  1  0  0  0  0
 29  1  1  0  0  0  0
 30  4  1  0  0  0  0
 31  5  1  0  0  0  0
 32  6  1  0  0  0  0
 33  7  1  0  0  0  0
 10  9  1  0  0  0  0
 17  9  1  0  0  0  0
 34  9  1  0  0  0  0
 11 10  1  0  0  0  0
 35 10  1  0  0  0  0
 12 11  2  0  0  0  0
 13 11  1  0  0  0  0
 14 13  1  0  0  0  0
 36 13  1  0  0  0  0
 37 13  1  0  0  0  0
 15 14  1  0  0  0  0
 38 14  1  0  0  0  0
 16 15  1  0  0  0  0
 39 15  1  0  0  0  0
 40 15  1  0  0  0  0
 41 16  1  0  0  0  0
 42 16  1  0  0  0  0
 18 17  2  0  0  0  0
 19 17  1  0  0  0  0
 20 19  1  0  0  0  0
 21 20  1  0  0  0  0
 43 20  1  0  0  0  0
 44 20  1  0  0  0  0
 22 21  1  0  0  0  0
 45 21  1  0  0  0  0
 46 21  1  0  0  0  0
 23 22  1  0  0  0  0
 26 22  1  0  0  0  0
 47 22  1  0  0  0  0
 24 23  1  0  0  0  0
 25 23  2  0  0  0  0
 48 24  1  0  0  0  0
 49 24  1  0  0  0  0
 50 26  1  0  0  0  0
 51 26  1  0  0  0  0
  8  3  1  0  0  0  0
 16 14  1  0  0  0  0
 26 19  1  0  0  0  0
M  END
>  <FittedScore>
-39.29

$$$$
