A71EV2A-x6726a_best-RMSD
  FITTED

 51 53     0  0  0  0  0  0  0999 V2000
    8.9755    8.8663   23.4535 C    0  0  0  0  0  0  0  0  0  0  0  0
    9.1001   10.5755   24.0621 S    0  0  0  0  0  0  0  0  0  0  0  0
    7.7222   10.8957   25.1909 C    0  0  0  0  0  0  0  0  0  0  0  0
    6.9118    9.8282   25.6508 C    0  0  0  0  0  0  0  0  0  0  0  0
    5.8475   10.0509   26.5212 C    0  0  0  0  0  0  0  0  0  0  0  0
    5.5441   11.3490   26.9396 C    0  0  0  0  0  0  0  0  0  0  0  0
    6.3104   12.4186   26.4814 C    0  0  0  0  0  0  0  0  0  0  0  0
    7.4209   12.2250   25.6209 C    0  0  0  0  0  0  0  0  0  0  0  0
    8.2214   13.4484   25.0791 C    0  0  0  0  0  0  0  0  0  0  0  0
    7.9869   14.6651   25.8944 N    0  0  0  0  0  0  0  0  0  0  0  0
    8.8808   15.3547   26.6475 C    0  0  0  0  0  0  0  0  0  0  0  0
   10.0636   15.0925   26.6545 O    0  0  0  0  0  0  0  0  0  0  0  0
    8.3584   16.6107   27.3239 C    0  0  0  0  0  0  0  0  0  0  0  0
    8.2218   16.3922   28.8256 C    0  0  0  0  0  0  0  0  0  0  0  0
    7.0206   15.6897   29.3925 C    0  0  0  0  0  0  0  0  0  0  0  0
    7.2178   17.1594   29.6386 C    0  0  0  0  0  0  0  0  0  0  0  0
    7.9161   13.7565   23.5980 C    0  0  0  0  0  0  0  0  0  0  0  0
    6.9812   13.2037   23.0317 O    0  0  0  0  0  0  0  0  0  0  0  0
    8.7914   14.5505   22.8881 N    0  0  0  0  0  0  0  0  0  0  0  0
    9.9487   15.3503   23.3838 C    0  0  0  0  0  0  0  0  0  0  0  0
   10.6635   15.9633   22.1695 C    0  0  0  0  0  0  0  0  0  0  0  0
   10.2181   15.0459   21.0271 C    0  0  0  0  0  0  0  0  0  0  0  0
   10.3187   15.6280   19.6284 C    0  0  0  0  0  0  0  0  0  0  0  0
   10.8152   14.7859   18.6999 N    0  0  0  0  0  0  0  0  0  0  0  0
    9.7562   16.6530   19.2922 O    0  0  0  0  0  0  0  0  0  0  0  0
    8.7889   14.6622   21.4237 C    0  0  0  0  0  0  0  0  0  0  0  0
    9.1112    8.1490   24.2690 H    0  0  0  0  0  0  0  0  0  0  0  0
    9.7497    8.6988   22.7025 H    0  0  0  0  0  0  0  0  0  0  0  0
    7.9987    8.7251   22.9855 H    0  0  0  0  0  0  0  0  0  0  0  0
    7.0923    8.8031   25.3517 H    0  0  0  0  0  0  0  0  0  0  0  0
    5.2388    9.2221   26.8710 H    0  0  0  0  0  0  0  0  0  0  0  0
    4.7086   11.5381   27.6099 H    0  0  0  0  0  0  0  0  0  0  0  0
    5.9971   13.4029   26.8135 H    0  0  0  0  0  0  0  0  0  0  0  0
    9.2766   13.1887   25.1593 H    0  0  0  0  0  0  0  0  0  0  0  0
    7.0199   14.9838   25.8817 H    0  0  0  0  0  0  0  0  0  0  0  0
    7.4119   16.9286   26.8756 H    0  0  0  0  0  0  0  0  0  0  0  0
    9.0528   17.4317   27.1203 H    0  0  0  0  0  0  0  0  0  0  0  0
    9.1794   16.2212   29.3194 H    0  0  0  0  0  0  0  0  0  0  0  0
    7.1863   15.0015   30.2168 H    0  0  0  0  0  0  0  0  0  0  0  0
    6.2323   15.3939   28.7060 H    0  0  0  0  0  0  0  0  0  0  0  0
    7.5196   17.4739   30.6328 H    0  0  0  0  0  0  0  0  0  0  0  0
    6.5609   17.8567   29.1287 H    0  0  0  0  0  0  0  0  0  0  0  0
   10.6481   14.7123   23.9369 H    0  0  0  0  0  0  0  0  0  0  0  0
    9.6120   16.1437   24.0570 H    0  0  0  0  0  0  0  0  0  0  0  0
   11.7461   15.9758   22.2957 H    0  0  0  0  0  0  0  0  0  0  0  0
   10.3184   16.9894   22.0000 H    0  0  0  0  0  0  0  0  0  0  0  0
   10.8360   14.1402   21.0866 H    0  0  0  0  0  0  0  0  0  0  0  0
   10.9464   15.0994   17.7410 H    0  0  0  0  0  0  0  0  0  0  0  0
   10.9854   13.8069   18.9279 H    0  0  0  0  0  0  0  0  0  0  0  0
    8.5046   13.7236   20.9407 H    0  0  0  0  0  0  0  0  0  0  0  0
    8.0800   15.4380   21.1227 H    0  0  0  0  0  0  0  0  0  0  0  0
  8  9  1  0  0  0  0
  7  8  2  0  0  0  0
  6  7  1  0  0  0  0
  5  6  2  0  0  0  0
  4  5  1  0  0  0  0
  3  4  2  0  0  0  0
  2  3  1  0  0  0  0
  1  2  1  0  0  0  0
 27  1  1  0  0  0  0
 28  1  1  0  0  0  0
 29  1  1  0  0  0  0
 30  4  1  0  0  0  0
 31  5  1  0  0  0  0
 32  6  1  0  0  0  0
 33  7  1  0  0  0  0
 10  9  1  0  0  0  0
 17  9  1  0  0  0  0
 34  9  1  0  0  0  0
 11 10  1  0  0  0  0
 35 10  1  0  0  0  0
 12 11  2  0  0  0  0
 13 11  1  0  0  0  0
 14 13  1  0  0  0  0
 36 13  1  0  0  0  0
 37 13  1  0  0  0  0
 15 14  1  0  0  0  0
 38 14  1  0  0  0  0
 16 15  1  0  0  0  0
 39 15  1  0  0  0  0
 40 15  1  0  0  0  0
 41 16  1  0  0  0  0
 42 16  1  0  0  0  0
 18 17  2  0  0  0  0
 19 17  1  0  0  0  0
 20 19  1  0  0  0  0
 21 20  1  0  0  0  0
 43 20  1  0  0  0  0
 44 20  1  0  0  0  0
 22 21  1  0  0  0  0
 45 21  1  0  0  0  0
 46 21  1  0  0  0  0
 23 22  1  0  0  0  0
 26 22  1  0  0  0  0
 47 22  1  0  0  0  0
 24 23  1  0  0  0  0
 25 23  2  0  0  0  0
 48 24  1  0  0  0  0
 49 24  1  0  0  0  0
 50 26  1  0  0  0  0
 51 26  1  0  0  0  0
  8  3  1  0  0  0  0
 16 14  1  0  0  0  0
 26 19  1  0  0  0  0
M  END
>  <FittedScore>
-39.48

$$$$
