A71EV2A-x5210a_lowest-energy
  FITTED

 40 42     0  0  0  0  0  0  0999 V2000
   10.5632   14.7629   25.3045 O    0  0  0  0  0  0  0  0  0  0  0  0
   10.3981   15.1886   24.1762 C    0  0  0  0  0  0  0  0  0  0  0  0
   11.6103   15.8049   23.4615 C    0  0  0  0  0  0  0  0  0  0  0  0
   11.3657   16.2815   22.0070 C    0  0  0  0  0  0  0  0  0  0  0  0
    9.2349   14.9245   23.4794 N    0  0  0  0  0  0  0  0  0  0  0  0
    9.1072   15.1147   22.0041 C    0  0  0  0  0  0  0  0  0  0  0  0
   10.4623   15.2679   21.2629 C    0  0  0  0  0  0  0  0  0  0  0  0
   10.2582   15.6612   19.8035 C    0  0  0  0  0  0  0  0  0  0  0  0
    9.6802   16.6734   19.4487 O    0  0  0  0  0  0  0  0  0  0  0  0
   10.5862   14.7162   18.9035 N    0  0  0  0  0  0  0  0  0  0  0  0
    8.0685   14.2196   24.1267 C    0  0  0  0  0  0  0  0  0  0  0  0
    8.2107   12.6809   24.1811 C    0  0  0  0  0  0  0  0  0  0  0  0
    9.2863   11.9629   23.6067 C    0  0  0  0  0  0  0  0  0  0  0  0
    9.3174   10.5672   23.6633 C    0  0  0  0  0  0  0  0  0  0  0  0
    8.2885    9.8727   24.3032 C    0  0  0  0  0  0  0  0  0  0  0  0
    7.2272   10.5608   24.8990 C    0  0  0  0  0  0  0  0  0  0  0  0
    7.1713   11.9619   24.8233 C    0  0  0  0  0  0  0  0  0  0  0  0
    5.9687   12.7223   25.3954 C    0  0  0  0  0  0  0  0  0  0  0  0
    5.5030   13.9385   24.5303 C    0  0  0  0  0  0  0  0  0  0  0  0
    6.6245   14.6279   23.6800 C    0  0  0  0  0  0  0  0  0  0  0  0
   11.9684   16.6536   24.0512 H    0  0  0  0  0  0  0  0  0  0  0  0
   12.4211   15.0686   23.4530 H    0  0  0  0  0  0  0  0  0  0  0  0
   10.8932   17.2711   22.0223 H    0  0  0  0  0  0  0  0  0  0  0  0
   12.3235   16.3891   21.4882 H    0  0  0  0  0  0  0  0  0  0  0  0
    8.4854   16.0004   21.8343 H    0  0  0  0  0  0  0  0  0  0  0  0
    8.5888   14.2652   21.5461 H    0  0  0  0  0  0  0  0  0  0  0  0
   10.9617   14.2917   21.3128 H    0  0  0  0  0  0  0  0  0  0  0  0
   10.8553   13.7802   19.1988 H    0  0  0  0  0  0  0  0  0  0  0  0
   10.4990   14.9081   17.9163 H    0  0  0  0  0  0  0  0  0  0  0  0
    8.0797   14.5558   25.1690 H    0  0  0  0  0  0  0  0  0  0  0  0
   10.1065   12.4620   23.1009 H    0  0  0  0  0  0  0  0  0  0  0  0
   10.1436   10.0264   23.2083 H    0  0  0  0  0  0  0  0  0  0  0  0
    8.3210    8.7873   24.3458 H    0  0  0  0  0  0  0  0  0  0  0  0
    6.4390    9.9978   25.3964 H    0  0  0  0  0  0  0  0  0  0  0  0
    5.1176   12.0501   25.5401 H    0  0  0  0  0  0  0  0  0  0  0  0
    6.2418   13.0820   26.3919 H    0  0  0  0  0  0  0  0  0  0  0  0
    4.7093   13.5981   23.8585 H    0  0  0  0  0  0  0  0  0  0  0  0
    5.0463   14.6821   25.1887 H    0  0  0  0  0  0  0  0  0  0  0  0
    6.4613   14.3532   22.6346 H    0  0  0  0  0  0  0  0  0  0  0  0
    6.5154   15.7139   23.7384 H    0  0  0  0  0  0  0  0  0  0  0  0
  2  5  1  0  0  0  0
  3  2  1  0  0  0  0
 21  3  1  0  0  0  0
  1  2  2  0  0  0  0
 22  3  1  0  0  0  0
  4  3  1  0  0  0  0
 23  4  1  0  0  0  0
 24  4  1  0  0  0  0
  6  5  1  0  0  0  0
 25  6  1  0  0  0  0
 26  6  1  0  0  0  0
  7  4  1  0  0  0  0
  8  7  1  0  0  0  0
 27  7  1  0  0  0  0
  9  8  2  0  0  0  0
 10  8  1  0  0  0  0
 28 10  1  0  0  0  0
 29 10  1  0  0  0  0
 11  5  1  0  0  0  0
 20 11  1  0  0  0  0
 30 11  1  0  0  0  0
 12 11  1  0  0  0  0
 13 12  1  0  0  0  0
 31 13  1  0  0  0  0
 14 13  2  0  0  0  0
 32 14  1  0  0  0  0
 15 14  1  0  0  0  0
 33 15  1  0  0  0  0
 16 15  2  0  0  0  0
 34 16  1  0  0  0  0
 17 16  1  0  0  0  0
 18 17  1  0  0  0  0
 35 18  1  0  0  0  0
 36 18  1  0  0  0  0
 19 18  1  0  0  0  0
 37 19  1  0  0  0  0
 38 19  1  0  0  0  0
 39 20  1  0  0  0  0
 40 20  1  0  0  0  0
  7  6  1  0  0  0  0
 17 12  2  0  0  0  0
 20 19  1  0  0  0  0
M  END
>  <FittedScore>
-33.77

$$$$
