A71EV2A-x7430a_best-RMSD
  FITTED

 57 59     0  0  0  0  0  0  0999 V2000
    9.5837    8.4427   23.4320 C    0  0  0  0  0  0  0  0  0  0  0  0
    9.4691   10.1841   23.9239 S    0  0  0  0  0  0  0  0  0  0  0  0
    8.0265   10.3585   24.9743 C    0  0  0  0  0  0  0  0  0  0  0  0
    7.3350    9.2278   25.2734 N    0  0  0  0  0  0  0  0  0  0  0  0
    6.2359    9.3289   26.0580 C    0  0  0  0  0  0  0  0  0  0  0  0
    5.7577   10.4889   26.5600 N    0  0  0  0  0  0  0  0  0  0  0  0
    6.4217   11.6485   26.2808 C    0  0  0  0  0  0  0  0  0  0  0  0
    5.8546   12.8093   26.8053 N    0  0  0  0  0  0  0  0  0  0  0  0
    5.3403   12.8363   28.2161 C    0  0  0  0  0  0  0  0  0  0  0  0
    3.7889   12.7570   28.2589 C    0  0  0  0  0  0  0  0  0  0  0  0
    3.1292   13.8186   27.3392 C    0  0  0  0  0  0  0  0  0  0  0  0
    3.7169   13.7805   25.9030 C    0  0  0  0  0  0  0  0  0  0  0  0
    5.2787   13.8412   25.8739 C    0  0  0  0  0  0  0  0  0  0  0  0
    5.8619   15.3027   26.0132 C    0  0  0  0  0  0  0  0  0  0  0  0
    6.7500   15.5259   27.1246 O    0  0  0  0  0  0  0  0  0  0  0  0
    7.6066   11.6244   25.4714 C    0  0  0  0  0  0  0  0  0  0  0  0
    8.4119   12.8902   25.1187 C    0  0  0  0  0  0  0  0  0  0  0  0
    8.1215   13.4725   23.7180 C    0  0  0  0  0  0  0  0  0  0  0  0
    7.2965   12.9374   22.9907 O    0  0  0  0  0  0  0  0  0  0  0  0
    8.8322   14.5731   23.2795 N    0  0  0  0  0  0  0  0  0  0  0  0
    9.7999   15.3972   24.0876 C    0  0  0  0  0  0  0  0  0  0  0  0
   11.2194   15.4765   23.4523 C    0  0  0  0  0  0  0  0  0  0  0  0
   11.1735   15.9536   21.9775 C    0  0  0  0  0  0  0  0  0  0  0  0
   10.1469   15.1056   21.1739 C    0  0  0  0  0  0  0  0  0  0  0  0
   10.0824   15.5782   19.7273 C    0  0  0  0  0  0  0  0  0  0  0  0
   10.6456   14.7576   18.8192 N    0  0  0  0  0  0  0  0  0  0  0  0
    9.5202   16.5977   19.3668 O    0  0  0  0  0  0  0  0  0  0  0  0
    8.7510   15.1122   21.8772 C    0  0  0  0  0  0  0  0  0  0  0  0
    9.6682    7.8136   24.3195 H    0  0  0  0  0  0  0  0  0  0  0  0
   10.4683    8.2960   22.8095 H    0  0  0  0  0  0  0  0  0  0  0  0
    8.6959    8.1633   22.8606 H    0  0  0  0  0  0  0  0  0  0  0  0
    5.6973    8.4113   26.2931 H    0  0  0  0  0  0  0  0  0  0  0  0
    5.6510   13.7414   28.7422 H    0  0  0  0  0  0  0  0  0  0  0  0
    5.7539   12.0256   28.8221 H    0  0  0  0  0  0  0  0  0  0  0  0
    3.4502   12.9077   29.2865 H    0  0  0  0  0  0  0  0  0  0  0  0
    3.4532   11.7572   27.9670 H    0  0  0  0  0  0  0  0  0  0  0  0
    3.2705   14.8139   27.7688 H    0  0  0  0  0  0  0  0  0  0  0  0
    2.0521   13.6418   27.2928 H    0  0  0  0  0  0  0  0  0  0  0  0
    3.2877   14.5926   25.3097 H    0  0  0  0  0  0  0  0  0  0  0  0
    3.3924   12.8549   25.4159 H    0  0  0  0  0  0  0  0  0  0  0  0
    5.4981   13.5541   24.8442 H    0  0  0  0  0  0  0  0  0  0  0  0
    5.0605   16.0428   26.0858 H    0  0  0  0  0  0  0  0  0  0  0  0
    6.4125   15.5545   25.1037 H    0  0  0  0  0  0  0  0  0  0  0  0
    6.8916   16.4876   27.1936 H    0  0  0  0  0  0  0  0  0  0  0  0
    9.4751   12.6749   25.2154 H    0  0  0  0  0  0  0  0  0  0  0  0
    8.2523   13.6427   25.8849 H    0  0  0  0  0  0  0  0  0  0  0  0
    9.9357   15.0380   25.1050 H    0  0  0  0  0  0  0  0  0  0  0  0
    9.3936   16.4077   24.2019 H    0  0  0  0  0  0  0  0  0  0  0  0
   11.6950   14.4926   23.5001 H    0  0  0  0  0  0  0  0  0  0  0  0
   11.8436   16.1574   24.0311 H    0  0  0  0  0  0  0  0  0  0  0  0
   12.1665   15.8563   21.5263 H    0  0  0  0  0  0  0  0  0  0  0  0
   10.8967   17.0149   21.9318 H    0  0  0  0  0  0  0  0  0  0  0  0
   10.5021   14.0647   21.1771 H    0  0  0  0  0  0  0  0  0  0  0  0
   10.9436   13.8180   19.0851 H    0  0  0  0  0  0  0  0  0  0  0  0
   10.6255   15.0117   17.8404 H    0  0  0  0  0  0  0  0  0  0  0  0
    8.0471   14.5597   21.2464 H    0  0  0  0  0  0  0  0  0  0  0  0
    8.3611   16.1378   21.9091 H    0  0  0  0  0  0  0  0  0  0  0  0
 16 17  1  0  0  0  0
  7 16  2  0  0  0  0
  6  7  1  0  0  0  0
  5  6  2  0  0  0  0
  4  5  1  0  0  0  0
  3  4  2  0  0  0  0
  2  3  1  0  0  0  0
  1  2  1  0  0  0  0
 29  1  1  0  0  0  0
 30  1  1  0  0  0  0
 31  1  1  0  0  0  0
 32  5  1  0  0  0  0
  8  7  1  0  0  0  0
  9  8  1  0  0  0  0
 10  9  1  0  0  0  0
 33  9  1  0  0  0  0
 34  9  1  0  0  0  0
 11 10  1  0  0  0  0
 35 10  1  0  0  0  0
 36 10  1  0  0  0  0
 12 11  1  0  0  0  0
 37 11  1  0  0  0  0
 38 11  1  0  0  0  0
 13 12  1  0  0  0  0
 39 12  1  0  0  0  0
 40 12  1  0  0  0  0
 14 13  1  0  0  0  0
 41 13  1  0  0  0  0
 15 14  1  0  0  0  0
 42 14  1  0  0  0  0
 43 14  1  0  0  0  0
 44 15  1  0  0  0  0
 18 17  1  0  0  0  0
 45 17  1  0  0  0  0
 46 17  1  0  0  0  0
 19 18  2  0  0  0  0
 20 18  1  0  0  0  0
 21 20  1  0  0  0  0
 22 21  1  0  0  0  0
 47 21  1  0  0  0  0
 48 21  1  0  0  0  0
 23 22  1  0  0  0  0
 49 22  1  0  0  0  0
 50 22  1  0  0  0  0
 24 23  1  0  0  0  0
 51 23  1  0  0  0  0
 52 23  1  0  0  0  0
 25 24  1  0  0  0  0
 28 24  1  0  0  0  0
 53 24  1  0  0  0  0
 26 25  1  0  0  0  0
 27 25  2  0  0  0  0
 54 26  1  0  0  0  0
 55 26  1  0  0  0  0
 56 28  1  0  0  0  0
 57 28  1  0  0  0  0
 13  8  1  0  0  0  0
 16  3  1  0  0  0  0
 28 20  1  0  0  0  0
M  END
>  <FittedScore>
-34.77

$$$$
