A71EV2A-x7430a_lowest-energy
  FITTED

 57 59     0  0  0  0  0  0  0999 V2000
    9.4076    8.6741   23.4728 C    0  0  0  0  0  0  0  0  0  0  0  0
    9.3138   10.4144   23.9940 S    0  0  0  0  0  0  0  0  0  0  0  0
    7.8874   10.5839   25.0613 C    0  0  0  0  0  0  0  0  0  0  0  0
    7.2039    9.4570   25.4030 N    0  0  0  0  0  0  0  0  0  0  0  0
    6.1175    9.5850   26.2087 C    0  0  0  0  0  0  0  0  0  0  0  0
    5.6252   10.7659   26.6603 N    0  0  0  0  0  0  0  0  0  0  0  0
    6.2695   11.9165   26.2987 C    0  0  0  0  0  0  0  0  0  0  0  0
    5.6655   13.1077   26.6785 N    0  0  0  0  0  0  0  0  0  0  0  0
    5.3220   13.3728   28.1043 C    0  0  0  0  0  0  0  0  0  0  0  0
    3.8022   13.1785   28.3734 C    0  0  0  0  0  0  0  0  0  0  0  0
    2.8982   13.8973   27.3310 C    0  0  0  0  0  0  0  0  0  0  0  0
    3.3713   13.6658   25.8660 C    0  0  0  0  0  0  0  0  0  0  0  0
    4.9069   13.8922   25.6565 C    0  0  0  0  0  0  0  0  0  0  0  0
    5.3377   15.3939   25.6420 C    0  0  0  0  0  0  0  0  0  0  0  0
    4.8358   16.0655   24.4900 O    0  0  0  0  0  0  0  0  0  0  0  0
    7.4645   11.8646   25.5187 C    0  0  0  0  0  0  0  0  0  0  0  0
    8.2673   13.1297   25.1468 C    0  0  0  0  0  0  0  0  0  0  0  0
    8.0403   13.6316   23.7070 C    0  0  0  0  0  0  0  0  0  0  0  0
    7.3121   13.0009   22.9544 O    0  0  0  0  0  0  0  0  0  0  0  0
    8.7478   14.7305   23.2549 N    0  0  0  0  0  0  0  0  0  0  0  0
    9.6798   15.5953   24.0631 C    0  0  0  0  0  0  0  0  0  0  0  0
   11.1403   15.5807   23.5259 C    0  0  0  0  0  0  0  0  0  0  0  0
   11.2039   15.9707   22.0243 C    0  0  0  0  0  0  0  0  0  0  0  0
   10.1861   15.1404   21.1857 C    0  0  0  0  0  0  0  0  0  0  0  0
   10.1880   15.6120   19.7336 C    0  0  0  0  0  0  0  0  0  0  0  0
   10.7484   14.7769   18.8395 N    0  0  0  0  0  0  0  0  0  0  0  0
    9.5726   16.5925   19.3622 O    0  0  0  0  0  0  0  0  0  0  0  0
    8.7559   15.1770   21.8239 C    0  0  0  0  0  0  0  0  0  0  0  0
    9.4947    8.0323   24.3507 H    0  0  0  0  0  0  0  0  0  0  0  0
   10.2829    8.5235   22.8384 H    0  0  0  0  0  0  0  0  0  0  0  0
    8.5117    8.4076   22.9078 H    0  0  0  0  0  0  0  0  0  0  0  0
    5.5886    8.6792   26.4959 H    0  0  0  0  0  0  0  0  0  0  0  0
    5.6118   14.3869   28.3881 H    0  0  0  0  0  0  0  0  0  0  0  0
    5.8864   12.7243   28.7802 H    0  0  0  0  0  0  0  0  0  0  0  0
    3.5664   13.5532   29.3728 H    0  0  0  0  0  0  0  0  0  0  0  0
    3.5622   12.1116   28.3828 H    0  0  0  0  0  0  0  0  0  0  0  0
    2.8711   14.9702   27.5437 H    0  0  0  0  0  0  0  0  0  0  0  0
    1.8697   13.5388   27.4408 H    0  0  0  0  0  0  0  0  0  0  0  0
    2.7914   14.3040   25.1947 H    0  0  0  0  0  0  0  0  0  0  0  0
    3.1309   12.6380   25.5779 H    0  0  0  0  0  0  0  0  0  0  0  0
    5.1243   13.5015   24.6564 H    0  0  0  0  0  0  0  0  0  0  0  0
    6.4214   15.4938   25.6237 H    0  0  0  0  0  0  0  0  0  0  0  0
    4.9895   15.9246   26.5290 H    0  0  0  0  0  0  0  0  0  0  0  0
    4.8408   15.4377   23.7436 H    0  0  0  0  0  0  0  0  0  0  0  0
    9.3302   12.9366   25.3054 H    0  0  0  0  0  0  0  0  0  0  0  0
    8.0515   13.9201   25.8634 H    0  0  0  0  0  0  0  0  0  0  0  0
    9.7191   15.3340   25.1203 H    0  0  0  0  0  0  0  0  0  0  0  0
    9.3005   16.6239   24.0555 H    0  0  0  0  0  0  0  0  0  0  0  0
   11.5740   14.5856   23.6686 H    0  0  0  0  0  0  0  0  0  0  0  0
   11.7539   16.2759   24.1066 H    0  0  0  0  0  0  0  0  0  0  0  0
   12.2160   15.7954   21.6517 H    0  0  0  0  0  0  0  0  0  0  0  0
   11.0028   17.0422   21.9173 H    0  0  0  0  0  0  0  0  0  0  0  0
   10.5177   14.0946   21.2234 H    0  0  0  0  0  0  0  0  0  0  0  0
   10.9986   13.8375   19.1346 H    0  0  0  0  0  0  0  0  0  0  0  0
   10.7045   14.9997   17.8521 H    0  0  0  0  0  0  0  0  0  0  0  0
    8.0990   14.5784   21.1909 H    0  0  0  0  0  0  0  0  0  0  0  0
    8.3394   16.1876   21.7779 H    0  0  0  0  0  0  0  0  0  0  0  0
 16 17  1  0  0  0  0
  7 16  2  0  0  0  0
  6  7  1  0  0  0  0
  5  6  2  0  0  0  0
  4  5  1  0  0  0  0
  3  4  2  0  0  0  0
  2  3  1  0  0  0  0
  1  2  1  0  0  0  0
 29  1  1  0  0  0  0
 30  1  1  0  0  0  0
 31  1  1  0  0  0  0
 32  5  1  0  0  0  0
  8  7  1  0  0  0  0
  9  8  1  0  0  0  0
 10  9  1  0  0  0  0
 33  9  1  0  0  0  0
 34  9  1  0  0  0  0
 11 10  1  0  0  0  0
 35 10  1  0  0  0  0
 36 10  1  0  0  0  0
 12 11  1  0  0  0  0
 37 11  1  0  0  0  0
 38 11  1  0  0  0  0
 13 12  1  0  0  0  0
 39 12  1  0  0  0  0
 40 12  1  0  0  0  0
 14 13  1  0  0  0  0
 41 13  1  0  0  0  0
 15 14  1  0  0  0  0
 42 14  1  0  0  0  0
 43 14  1  0  0  0  0
 44 15  1  0  0  0  0
 18 17  1  0  0  0  0
 45 17  1  0  0  0  0
 46 17  1  0  0  0  0
 19 18  2  0  0  0  0
 20 18  1  0  0  0  0
 21 20  1  0  0  0  0
 22 21  1  0  0  0  0
 47 21  1  0  0  0  0
 48 21  1  0  0  0  0
 23 22  1  0  0  0  0
 49 22  1  0  0  0  0
 50 22  1  0  0  0  0
 24 23  1  0  0  0  0
 51 23  1  0  0  0  0
 52 23  1  0  0  0  0
 25 24  1  0  0  0  0
 28 24  1  0  0  0  0
 53 24  1  0  0  0  0
 26 25  1  0  0  0  0
 27 25  2  0  0  0  0
 54 26  1  0  0  0  0
 55 26  1  0  0  0  0
 56 28  1  0  0  0  0
 57 28  1  0  0  0  0
 13  8  1  0  0  0  0
 16  3  1  0  0  0  0
 28 20  1  0  0  0  0
M  END
>  <FittedScore>
-33.85

$$$$
