A71EV2A-x3986b_best-RMSD
  FITTED

 47 49     0  0  0  0  0  0  0999 V2000
    7.4260   13.4389   23.1539 O    0  0  0  0  0  0  0  0  0  0  0  0
    8.2207   14.0796   23.8286 C    0  0  0  0  0  0  0  0  0  0  0  0
    8.7989   15.2288   23.3365 N    0  0  0  0  0  0  0  0  0  0  0  0
    9.7235   16.1612   24.0613 C    0  0  0  0  0  0  0  0  0  0  0  0
   11.1795   16.0293   23.5394 C    0  0  0  0  0  0  0  0  0  0  0  0
   11.2544   16.2838   22.0076 C    0  0  0  0  0  0  0  0  0  0  0  0
    8.7571   15.5944   21.8878 C    0  0  0  0  0  0  0  0  0  0  0  0
   10.1737   15.4588   21.2367 C    0  0  0  0  0  0  0  0  0  0  0  0
   10.1521   15.8307   19.7537 C    0  0  0  0  0  0  0  0  0  0  0  0
    9.6386   16.8523   19.3299 O    0  0  0  0  0  0  0  0  0  0  0  0
   10.5444   14.8548   18.9107 N    0  0  0  0  0  0  0  0  0  0  0  0
    8.7047   13.4960   25.1691 C    0  0  0  0  0  0  0  0  0  0  0  0
    8.8180   11.9753   25.0609 C    0  0  0  0  0  0  0  0  0  0  0  0
    7.7399   11.1135   25.3551 C    0  0  0  0  0  0  0  0  0  0  0  0
    7.8391    9.7470   25.0858 C    0  0  0  0  0  0  0  0  0  0  0  0
    9.0004    9.2350   24.4977 C    0  0  0  0  0  0  0  0  0  0  0  0
   10.0729   10.0734   24.1976 C    0  0  0  0  0  0  0  0  0  0  0  0
    9.9815   11.4417   24.4677 C    0  0  0  0  0  0  0  0  0  0  0  0
    7.7689   14.0634   26.6509 S    0  0  0  0  0  0  0  0  0  0  0  0
    6.2824   14.8189   26.0401 C    0  0  0  0  0  0  0  0  0  0  0  0
    6.2955   16.1709   25.6489 C    0  0  0  0  0  0  0  0  0  0  0  0
    5.1232   16.7756   25.1731 C    0  0  0  0  0  0  0  0  0  0  0  0
    3.9329   16.0358   25.1052 C    0  0  0  0  0  0  0  0  0  0  0  0
    3.9138   14.6878   25.4996 C    0  0  0  0  0  0  0  0  0  0  0  0
    5.0886   14.0788   25.9680 C    0  0  0  0  0  0  0  0  0  0  0  0
    9.3786   17.1926   23.9160 H    0  0  0  0  0  0  0  0  0  0  0  0
    9.7028   16.0383   25.1433 H    0  0  0  0  0  0  0  0  0  0  0  0
   11.8239   16.7396   24.0606 H    0  0  0  0  0  0  0  0  0  0  0  0
   11.5575   15.0298   23.7676 H    0  0  0  0  0  0  0  0  0  0  0  0
   11.1229   17.3521   21.8111 H    0  0  0  0  0  0  0  0  0  0  0  0
   12.2528   16.0222   21.6395 H    0  0  0  0  0  0  0  0  0  0  0  0
    8.3826   16.6191   21.7831 H    0  0  0  0  0  0  0  0  0  0  0  0
    8.0562   14.9776   21.3177 H    0  0  0  0  0  0  0  0  0  0  0  0
   10.4575   14.4041   21.3439 H    0  0  0  0  0  0  0  0  0  0  0  0
   10.4672   15.0027   17.9128 H    0  0  0  0  0  0  0  0  0  0  0  0
   10.7456   13.9198   19.2559 H    0  0  0  0  0  0  0  0  0  0  0  0
    9.7220   13.8211   25.3907 H    0  0  0  0  0  0  0  0  0  0  0  0
    6.8112   11.4918   25.7642 H    0  0  0  0  0  0  0  0  0  0  0  0
    7.0088    9.0842   25.3152 H    0  0  0  0  0  0  0  0  0  0  0  0
    9.0716    8.1714   24.2769 H    0  0  0  0  0  0  0  0  0  0  0  0
   10.9755    9.6678   23.7478 H    0  0  0  0  0  0  0  0  0  0  0  0
   10.8154   12.0870   24.1923 H    0  0  0  0  0  0  0  0  0  0  0  0
    7.2076   16.7579   25.7191 H    0  0  0  0  0  0  0  0  0  0  0  0
    5.1352   17.8191   24.8689 H    0  0  0  0  0  0  0  0  0  0  0  0
    3.0239   16.5063   24.7388 H    0  0  0  0  0  0  0  0  0  0  0  0
    2.9875   14.1202   25.4478 H    0  0  0  0  0  0  0  0  0  0  0  0
    5.0631   13.0380   26.2811 H    0  0  0  0  0  0  0  0  0  0  0  0
  2  1  2  0  0  0  0
  3  2  1  0  0  0  0
  4  3  1  0  0  0  0
 26  4  1  0  0  0  0
 27  4  1  0  0  0  0
  5  4  1  0  0  0  0
 28  5  1  0  0  0  0
 29  5  1  0  0  0  0
  6  5  1  0  0  0  0
 30  6  1  0  0  0  0
 31  6  1  0  0  0  0
  7  3  1  0  0  0  0
 32  7  1  0  0  0  0
 33  7  1  0  0  0  0
  8  6  1  0  0  0  0
  9  8  1  0  0  0  0
 34  8  1  0  0  0  0
 10  9  2  0  0  0  0
 11  9  1  0  0  0  0
 35 11  1  0  0  0  0
 36 11  1  0  0  0  0
 12  2  1  0  0  0  0
 19 12  1  0  0  0  0
 37 12  1  0  0  0  0
 13 12  1  0  0  0  0
 18 13  2  0  0  0  0
 14 13  1  0  0  0  0
 38 14  1  0  0  0  0
 15 14  2  0  0  0  0
 39 15  1  0  0  0  0
 16 15  1  0  0  0  0
 40 16  1  0  0  0  0
 17 16  2  0  0  0  0
 41 17  1  0  0  0  0
 42 18  1  0  0  0  0
 20 19  1  0  0  0  0
 25 20  2  0  0  0  0
 21 20  1  0  0  0  0
 43 21  1  0  0  0  0
 22 21  2  0  0  0  0
 44 22  1  0  0  0  0
 23 22  1  0  0  0  0
 45 23  1  0  0  0  0
 24 23  2  0  0  0  0
 46 24  1  0  0  0  0
 47 25  1  0  0  0  0
  8  7  1  0  0  0  0
 18 17  1  0  0  0  0
 25 24  1  0  0  0  0
M  END
>  <FittedScore>
-28.26

$$$$
