A71EV2A-x6736a_best-RMSD
  FITTED

 53 55     0  0  0  0  0  0  0999 V2000
    3.8544    8.4394   29.1773 C    0  0  0  0  0  0  0  0  0  0  0  0
    4.2278    9.6774   28.5150 O    0  0  0  0  0  0  0  0  0  0  0  0
    3.3365   10.5142   27.8509 C    0  0  0  0  0  0  0  0  0  0  0  0
    2.0811   10.6871   28.3627 N    0  0  0  0  0  0  0  0  0  0  0  0
    1.2264   11.5613   27.7712 C    0  0  0  0  0  0  0  0  0  0  0  0
    1.5977   12.3198   26.6561 C    0  0  0  0  0  0  0  0  0  0  0  0
    2.8837   12.1603   26.1210 C    0  0  0  0  0  0  0  0  0  0  0  0
    3.7880   11.2274   26.6969 C    0  0  0  0  0  0  0  0  0  0  0  0
    5.1567   11.0356   26.0983 C    0  0  0  0  0  0  0  0  0  0  0  0
    5.6946    9.7524   25.8434 C    0  0  0  0  0  0  0  0  0  0  0  0
    6.9743    9.5955   25.3041 C    0  0  0  0  0  0  0  0  0  0  0  0
    7.7793   10.7056   24.9898 C    0  0  0  0  0  0  0  0  0  0  0  0
    9.4463   10.4736   24.3399 S    0  0  0  0  0  0  0  0  0  0  0  0
    9.5219    8.8255   23.5742 C    0  0  0  0  0  0  0  0  0  0  0  0
    7.2520   12.0010   25.2255 C    0  0  0  0  0  0  0  0  0  0  0  0
    8.0310   13.2861   24.9222 C    0  0  0  0  0  0  0  0  0  0  0  0
    8.0245   13.7064   23.4408 C    0  0  0  0  0  0  0  0  0  0  0  0
    7.1832   13.2318   22.6903 O    0  0  0  0  0  0  0  0  0  0  0  0
    8.9103   14.6788   23.0088 N    0  0  0  0  0  0  0  0  0  0  0  0
    9.7441   15.5738   23.8938 C    0  0  0  0  0  0  0  0  0  0  0  0
   11.2289   15.6916   23.4559 C    0  0  0  0  0  0  0  0  0  0  0  0
   11.3445   16.1610   21.9858 C    0  0  0  0  0  0  0  0  0  0  0  0
   10.4882   15.2519   21.0601 C    0  0  0  0  0  0  0  0  0  0  0  0
   10.5590   15.7279   19.6088 C    0  0  0  0  0  0  0  0  0  0  0  0
   10.9525   14.8143   18.7125 N    0  0  0  0  0  0  0  0  0  0  0  0
   10.2369   16.8328   19.2278 O    0  0  0  0  0  0  0  0  0  0  0  0
    9.0152   15.1162   21.5728 C    0  0  0  0  0  0  0  0  0  0  0  0
    5.9580   12.1394   25.7664 C    0  0  0  0  0  0  0  0  0  0  0  0
    3.3542    7.7698   28.4742 H    0  0  0  0  0  0  0  0  0  0  0  0
    3.1929    8.6468   30.0225 H    0  0  0  0  0  0  0  0  0  0  0  0
    4.7548    7.9526   29.5549 H    0  0  0  0  0  0  0  0  0  0  0  0
    0.2269   11.6815   28.1817 H    0  0  0  0  0  0  0  0  0  0  0  0
    0.8940   13.0192   26.2115 H    0  0  0  0  0  0  0  0  0  0  0  0
    3.1709   12.7511   25.2516 H    0  0  0  0  0  0  0  0  0  0  0  0
    5.1172    8.8629   26.0697 H    0  0  0  0  0  0  0  0  0  0  0  0
    7.3277    8.5827   25.1587 H    0  0  0  0  0  0  0  0  0  0  0  0
    8.7190    8.7208   22.8404 H    0  0  0  0  0  0  0  0  0  0  0  0
    9.4372    8.0502   24.3362 H    0  0  0  0  0  0  0  0  0  0  0  0
   10.4821    8.7153   23.0680 H    0  0  0  0  0  0  0  0  0  0  0  0
    9.0464   13.1475   25.2964 H    0  0  0  0  0  0  0  0  0  0  0  0
    7.6293   14.1148   25.5145 H    0  0  0  0  0  0  0  0  0  0  0  0
    9.7517   15.2737   24.9403 H    0  0  0  0  0  0  0  0  0  0  0  0
    9.2922   16.5703   23.8998 H    0  0  0  0  0  0  0  0  0  0  0  0
   11.7257   14.7231   23.5799 H    0  0  0  0  0  0  0  0  0  0  0  0
   11.7488   16.4002   24.1053 H    0  0  0  0  0  0  0  0  0  0  0  0
   12.3915   16.1252   21.6718 H    0  0  0  0  0  0  0  0  0  0  0  0
   11.0220   17.2042   21.9050 H    0  0  0  0  0  0  0  0  0  0  0  0
   10.9252   14.2461   21.1219 H    0  0  0  0  0  0  0  0  0  0  0  0
   10.9537   15.0393   17.7264 H    0  0  0  0  0  0  0  0  0  0  0  0
   11.1295   13.8515   18.9868 H    0  0  0  0  0  0  0  0  0  0  0  0
    8.5076   14.4150   20.9055 H    0  0  0  0  0  0  0  0  0  0  0  0
    8.4887   16.0676   21.4568 H    0  0  0  0  0  0  0  0  0  0  0  0
    5.5633   13.1373   25.9485 H    0  0  0  0  0  0  0  0  0  0  0  0
 12 15  1  0  0  0  0
 11 12  2  0  0  0  0
 10 11  1  0  0  0  0
  9 10  2  0  0  0  0
  8  9  1  0  0  0  0
  7  8  2  0  0  0  0
  6  7  1  0  0  0  0
  5  6  2  0  0  0  0
  4  5  1  0  0  0  0
  3  4  2  0  0  0  0
  2  3  1  0  0  0  0
  1  2  1  0  0  0  0
 29  1  1  0  0  0  0
 30  1  1  0  0  0  0
 31  1  1  0  0  0  0
 32  5  1  0  0  0  0
 33  6  1  0  0  0  0
 34  7  1  0  0  0  0
 35 10  1  0  0  0  0
 36 11  1  0  0  0  0
 13 12  1  0  0  0  0
 14 13  1  0  0  0  0
 37 14  1  0  0  0  0
 38 14  1  0  0  0  0
 39 14  1  0  0  0  0
 16 15  1  0  0  0  0
 28 15  2  0  0  0  0
 17 16  1  0  0  0  0
 40 16  1  0  0  0  0
 41 16  1  0  0  0  0
 18 17  2  0  0  0  0
 19 17  1  0  0  0  0
 20 19  1  0  0  0  0
 21 20  1  0  0  0  0
 42 20  1  0  0  0  0
 43 20  1  0  0  0  0
 22 21  1  0  0  0  0
 44 21  1  0  0  0  0
 45 21  1  0  0  0  0
 23 22  1  0  0  0  0
 46 22  1  0  0  0  0
 47 22  1  0  0  0  0
 24 23  1  0  0  0  0
 27 23  1  0  0  0  0
 48 23  1  0  0  0  0
 25 24  1  0  0  0  0
 26 24  2  0  0  0  0
 49 25  1  0  0  0  0
 50 25  1  0  0  0  0
 51 27  1  0  0  0  0
 52 27  1  0  0  0  0
 53 28  1  0  0  0  0
  8  3  1  0  0  0  0
 27 19  1  0  0  0  0
 28  9  1  0  0  0  0
M  END
>  <FittedScore>
-34.11

$$$$
