A71EV2A-x6736a_lowest-energy
  FITTED

 53 55     0  0  0  0  0  0  0999 V2000
    4.1264    8.2711   29.4771 C    0  0  0  0  0  0  0  0  0  0  0  0
    4.4869    9.3481   28.5684 O    0  0  0  0  0  0  0  0  0  0  0  0
    3.5499   10.2075   28.0034 C    0  0  0  0  0  0  0  0  0  0  0  0
    2.3365   10.3588   28.6191 N    0  0  0  0  0  0  0  0  0  0  0  0
    1.4252   11.2264   28.1149 C    0  0  0  0  0  0  0  0  0  0  0  0
    1.6964   12.0034   26.9830 C    0  0  0  0  0  0  0  0  0  0  0  0
    2.9380   11.8739   26.3439 C    0  0  0  0  0  0  0  0  0  0  0  0
    3.9082   10.9583   26.8352 C    0  0  0  0  0  0  0  0  0  0  0  0
    5.2422   10.8283   26.1468 C    0  0  0  0  0  0  0  0  0  0  0  0
    5.7806    9.5823   25.7668 C    0  0  0  0  0  0  0  0  0  0  0  0
    7.0147    9.4818   25.1146 C    0  0  0  0  0  0  0  0  0  0  0  0
    7.7831   10.6231   24.8249 C    0  0  0  0  0  0  0  0  0  0  0  0
    9.3739   10.4927   23.9783 S    0  0  0  0  0  0  0  0  0  0  0  0
    9.7627    8.7247   23.7664 C    0  0  0  0  0  0  0  0  0  0  0  0
    7.2626   11.8890   25.1965 C    0  0  0  0  0  0  0  0  0  0  0  0
    8.0132   13.2025   24.9266 C    0  0  0  0  0  0  0  0  0  0  0  0
    8.0115   13.6525   23.4540 C    0  0  0  0  0  0  0  0  0  0  0  0
    7.1675   13.2023   22.6900 O    0  0  0  0  0  0  0  0  0  0  0  0
    8.9021   14.6230   23.0405 N    0  0  0  0  0  0  0  0  0  0  0  0
    9.7274   15.5145   23.9315 C    0  0  0  0  0  0  0  0  0  0  0  0
   11.2060   15.6833   23.4880 C    0  0  0  0  0  0  0  0  0  0  0  0
   11.3096   16.1561   22.0152 C    0  0  0  0  0  0  0  0  0  0  0  0
   10.4452   15.2503   21.0910 C    0  0  0  0  0  0  0  0  0  0  0  0
   10.4647   15.7542   19.6509 C    0  0  0  0  0  0  0  0  0  0  0  0
   11.0171   14.9221   18.7529 N    0  0  0  0  0  0  0  0  0  0  0  0
    9.9953   16.8188   19.2956 O    0  0  0  0  0  0  0  0  0  0  0  0
    8.9852   15.0859   21.6175 C    0  0  0  0  0  0  0  0  0  0  0  0
    6.0113   11.9714   25.8337 C    0  0  0  0  0  0  0  0  0  0  0  0
    3.3735    7.6256   29.0175 H    0  0  0  0  0  0  0  0  0  0  0  0
    3.7566    8.6963   30.4104 H    0  0  0  0  0  0  0  0  0  0  0  0
    5.0068    7.6641   29.7115 H    0  0  0  0  0  0  0  0  0  0  0  0
    0.4614   11.3234   28.6098 H    0  0  0  0  0  0  0  0  0  0  0  0
    0.9481   12.6975   26.6102 H    0  0  0  0  0  0  0  0  0  0  0  0
    3.1401   12.4770   25.4586 H    0  0  0  0  0  0  0  0  0  0  0  0
    5.2352    8.6652   25.9709 H    0  0  0  0  0  0  0  0  0  0  0  0
    7.3442    8.4895   24.8329 H    0  0  0  0  0  0  0  0  0  0  0  0
    9.7395    8.2272   24.7395 H    0  0  0  0  0  0  0  0  0  0  0  0
   10.7637    8.6213   23.3416 H    0  0  0  0  0  0  0  0  0  0  0  0
    9.0455    8.2653   23.0808 H    0  0  0  0  0  0  0  0  0  0  0  0
    9.0324   13.0796   25.3043 H    0  0  0  0  0  0  0  0  0  0  0  0
    7.5856   14.0094   25.5297 H    0  0  0  0  0  0  0  0  0  0  0  0
    9.7377   15.1964   24.9698 H    0  0  0  0  0  0  0  0  0  0  0  0
    9.2541   16.4995   23.9520 H    0  0  0  0  0  0  0  0  0  0  0  0
   11.7412   14.7364   23.6113 H    0  0  0  0  0  0  0  0  0  0  0  0
   11.7001   16.4126   24.1356 H    0  0  0  0  0  0  0  0  0  0  0  0
   12.3548   16.1154   21.6937 H    0  0  0  0  0  0  0  0  0  0  0  0
   10.9993   17.2048   21.9408 H    0  0  0  0  0  0  0  0  0  0  0  0
   10.8983   14.2522   21.1314 H    0  0  0  0  0  0  0  0  0  0  0  0
   11.2921   13.9924   19.0467 H    0  0  0  0  0  0  0  0  0  0  0  0
   10.9911   15.1400   17.7594 H    0  0  0  0  0  0  0  0  0  0  0  0
    8.4837   14.3854   20.9434 H    0  0  0  0  0  0  0  0  0  0  0  0
    8.4327   16.0265   21.5260 H    0  0  0  0  0  0  0  0  0  0  0  0
    5.6218   12.9417   26.1076 H    0  0  0  0  0  0  0  0  0  0  0  0
 12 15  1  0  0  0  0
 11 12  2  0  0  0  0
 10 11  1  0  0  0  0
  9 10  2  0  0  0  0
  8  9  1  0  0  0  0
  7  8  2  0  0  0  0
  6  7  1  0  0  0  0
  5  6  2  0  0  0  0
  4  5  1  0  0  0  0
  3  4  2  0  0  0  0
  2  3  1  0  0  0  0
  1  2  1  0  0  0  0
 29  1  1  0  0  0  0
 30  1  1  0  0  0  0
 31  1  1  0  0  0  0
 32  5  1  0  0  0  0
 33  6  1  0  0  0  0
 34  7  1  0  0  0  0
 35 10  1  0  0  0  0
 36 11  1  0  0  0  0
 13 12  1  0  0  0  0
 14 13  1  0  0  0  0
 37 14  1  0  0  0  0
 38 14  1  0  0  0  0
 39 14  1  0  0  0  0
 16 15  1  0  0  0  0
 28 15  2  0  0  0  0
 17 16  1  0  0  0  0
 40 16  1  0  0  0  0
 41 16  1  0  0  0  0
 18 17  2  0  0  0  0
 19 17  1  0  0  0  0
 20 19  1  0  0  0  0
 21 20  1  0  0  0  0
 42 20  1  0  0  0  0
 43 20  1  0  0  0  0
 22 21  1  0  0  0  0
 44 21  1  0  0  0  0
 45 21  1  0  0  0  0
 23 22  1  0  0  0  0
 46 22  1  0  0  0  0
 47 22  1  0  0  0  0
 24 23  1  0  0  0  0
 27 23  1  0  0  0  0
 48 23  1  0  0  0  0
 25 24  1  0  0  0  0
 26 24  2  0  0  0  0
 49 25  1  0  0  0  0
 50 25  1  0  0  0  0
 51 27  1  0  0  0  0
 52 27  1  0  0  0  0
 53 28  1  0  0  0  0
  8  3  1  0  0  0  0
 27 19  1  0  0  0  0
 28  9  1  0  0  0  0
M  END
>  <FittedScore>
-34.17

$$$$
