A71EV2A-x3944a_best-RMSD
  FITTED

 56 58     0  0  0  0  0  0  0999 V2000
    9.4868   16.5021   19.3931 O    0  0  0  0  0  0  0  0  0  0  0  0
   10.0659   15.4946   19.7583 C    0  0  0  0  0  0  0  0  0  0  0  0
   10.5530   14.6331   18.8460 N    0  0  0  0  0  0  0  0  0  0  0  0
   10.1501   15.0055   21.2029 C    0  0  0  0  0  0  0  0  0  0  0  0
   11.3656   15.6254   21.9547 C    0  0  0  0  0  0  0  0  0  0  0  0
   11.4263   15.1408   23.4342 C    0  0  0  0  0  0  0  0  0  0  0  0
   10.0410   15.2410   24.1447 C    0  0  0  0  0  0  0  0  0  0  0  0
    8.8310   15.2085   22.0083 C    0  0  0  0  0  0  0  0  0  0  0  0
    8.9523   14.5663   23.3580 N    0  0  0  0  0  0  0  0  0  0  0  0
    8.3395   13.3657   23.6412 C    0  0  0  0  0  0  0  0  0  0  0  0
    7.4281   12.9494   22.9490 O    0  0  0  0  0  0  0  0  0  0  0  0
    8.9102   12.4000   24.6834 C    0  0  0  0  0  0  0  0  0  0  0  0
    7.8536   12.0868   25.7406 C    0  0  0  0  0  0  0  0  0  0  0  0
    7.2272   10.8319   25.7729 C    0  0  0  0  0  0  0  0  0  0  0  0
    6.2310   10.5688   26.7165 C    0  0  0  0  0  0  0  0  0  0  0  0
    5.8419   11.5592   27.6278 C    0  0  0  0  0  0  0  0  0  0  0  0
    7.4684   13.0755   26.6654 C    0  0  0  0  0  0  0  0  0  0  0  0
    6.4301   12.8451   27.6035 C    0  0  0  0  0  0  0  0  0  0  0  0
    5.9797   13.9050   28.6026 C    0  0  0  0  0  0  0  0  0  0  0  0
    5.3087   13.6283   29.5825 O    0  0  0  0  0  0  0  0  0  0  0  0
    6.2902   15.2150   28.3380 N    0  0  0  0  0  0  0  0  0  0  0  0
    5.7561   15.8910   27.1089 C    0  0  0  0  0  0  0  0  0  0  0  0
    6.7552   16.7368   26.2785 C    0  0  0  0  0  0  0  0  0  0  0  0
    6.7363   16.1356   29.4306 C    0  0  0  0  0  0  0  0  0  0  0  0
    8.1743   15.7820   29.8149 C    0  0  0  0  0  0  0  0  0  0  0  0
    9.3390   16.2206   28.9695 C    0  0  0  0  0  0  0  0  0  0  0  0
    9.1353   16.8135   30.3343 C    0  0  0  0  0  0  0  0  0  0  0  0
   10.5150   14.8721   17.8643 H    0  0  0  0  0  0  0  0  0  0  0  0
   10.8194   13.6894   19.1223 H    0  0  0  0  0  0  0  0  0  0  0  0
   10.3161   13.9197   21.1805 H    0  0  0  0  0  0  0  0  0  0  0  0
   12.2922   15.3464   21.4484 H    0  0  0  0  0  0  0  0  0  0  0  0
   11.3046   16.7155   21.9257 H    0  0  0  0  0  0  0  0  0  0  0  0
   11.7799   14.1045   23.4637 H    0  0  0  0  0  0  0  0  0  0  0  0
   12.1620   15.7361   23.9803 H    0  0  0  0  0  0  0  0  0  0  0  0
   10.1194   14.8754   25.1704 H    0  0  0  0  0  0  0  0  0  0  0  0
    9.7889   16.2996   24.2711 H    0  0  0  0  0  0  0  0  0  0  0  0
    8.0035   14.8118   21.4132 H    0  0  0  0  0  0  0  0  0  0  0  0
    8.6051   16.2718   22.1209 H    0  0  0  0  0  0  0  0  0  0  0  0
    9.2222   11.4940   24.1515 H    0  0  0  0  0  0  0  0  0  0  0  0
    9.8213   12.7318   25.1799 H    0  0  0  0  0  0  0  0  0  0  0  0
    7.5133   10.0608   25.0606 H    0  0  0  0  0  0  0  0  0  0  0  0
    5.7485    9.5939   26.7305 H    0  0  0  0  0  0  0  0  0  0  0  0
    5.0529   11.3224   28.3376 H    0  0  0  0  0  0  0  0  0  0  0  0
    7.9986   14.0199   26.6490 H    0  0  0  0  0  0  0  0  0  0  0  0
    5.3210   15.1508   26.4304 H    0  0  0  0  0  0  0  0  0  0  0  0
    4.9114   16.5208   27.4009 H    0  0  0  0  0  0  0  0  0  0  0  0
    6.3143   16.9938   25.3140 H    0  0  0  0  0  0  0  0  0  0  0  0
    7.6815   16.1987   26.0844 H    0  0  0  0  0  0  0  0  0  0  0  0
    7.0032   17.6687   26.7898 H    0  0  0  0  0  0  0  0  0  0  0  0
    6.0863   16.0312   30.3041 H    0  0  0  0  0  0  0  0  0  0  0  0
    6.6506   17.1897   29.1513 H    0  0  0  0  0  0  0  0  0  0  0  0
    8.2515   14.7960   30.2735 H    0  0  0  0  0  0  0  0  0  0  0  0
   10.1465   15.5086   28.8264 H    0  0  0  0  0  0  0  0  0  0  0  0
    9.1583   16.8674   28.1168 H    0  0  0  0  0  0  0  0  0  0  0  0
    9.8147   16.5140   31.1277 H    0  0  0  0  0  0  0  0  0  0  0  0
    8.7956   17.8428   30.4021 H    0  0  0  0  0  0  0  0  0  0  0  0
 13 17  2  0  0  0  0
 12 13  1  0  0  0  0
 10 12  1  0  0  0  0
  9 10  1  0  0  0  0
  7  9  1  0  0  0  0
  6  7  1  0  0  0  0
  5  6  1  0  0  0  0
  4  5  1  0  0  0  0
  2  4  1  0  0  0  0
  1  2  2  0  0  0  0
  3  2  1  0  0  0  0
 28  3  1  0  0  0  0
 29  3  1  0  0  0  0
 30  4  1  0  0  0  0
 31  5  1  0  0  0  0
 32  5  1  0  0  0  0
 33  6  1  0  0  0  0
 34  6  1  0  0  0  0
 35  7  1  0  0  0  0
 36  7  1  0  0  0  0
  8  4  1  0  0  0  0
 37  8  1  0  0  0  0
 38  8  1  0  0  0  0
 11 10  2  0  0  0  0
 39 12  1  0  0  0  0
 40 12  1  0  0  0  0
 14 13  1  0  0  0  0
 41 14  1  0  0  0  0
 15 14  2  0  0  0  0
 42 15  1  0  0  0  0
 16 15  1  0  0  0  0
 43 16  1  0  0  0  0
 44 17  1  0  0  0  0
 18 16  2  0  0  0  0
 19 18  1  0  0  0  0
 20 19  2  0  0  0  0
 21 19  1  0  0  0  0
 22 21  1  0  0  0  0
 45 22  1  0  0  0  0
 46 22  1  0  0  0  0
 23 22  1  0  0  0  0
 47 23  1  0  0  0  0
 48 23  1  0  0  0  0
 49 23  1  0  0  0  0
 24 21  1  0  0  0  0
 50 24  1  0  0  0  0
 51 24  1  0  0  0  0
 25 24  1  0  0  0  0
 27 25  1  0  0  0  0
 52 25  1  0  0  0  0
 26 25  1  0  0  0  0
 53 26  1  0  0  0  0
 54 26  1  0  0  0  0
 55 27  1  0  0  0  0
 56 27  1  0  0  0  0
  9  8  1  0  0  0  0
 18 17  1  0  0  0  0
 27 26  1  0  0  0  0
M  END
>  <FittedScore>
-29.72

$$$$
