A71EV2A-x3944a_lowest-energy
  FITTED

 56 58     0  0  0  0  0  0  0999 V2000
    9.4147   16.5719   19.2690 O    0  0  0  0  0  0  0  0  0  0  0  0
   10.3310   15.8298   19.5664 C    0  0  0  0  0  0  0  0  0  0  0  0
   11.1976   15.4320   18.6218 N    0  0  0  0  0  0  0  0  0  0  0  0
   10.5112   15.1609   20.9268 C    0  0  0  0  0  0  0  0  0  0  0  0
   11.5235   15.9208   21.8330 C    0  0  0  0  0  0  0  0  0  0  0  0
   11.6531   15.2346   23.2232 C    0  0  0  0  0  0  0  0  0  0  0  0
   10.2815   14.8632   23.8565 C    0  0  0  0  0  0  0  0  0  0  0  0
    9.1595   14.9444   21.6706 C    0  0  0  0  0  0  0  0  0  0  0  0
    9.3403   14.1576   22.9312 N    0  0  0  0  0  0  0  0  0  0  0  0
    8.5807   13.0479   23.2073 C    0  0  0  0  0  0  0  0  0  0  0  0
    7.4710   12.9475   22.7189 O    0  0  0  0  0  0  0  0  0  0  0  0
    9.0560   11.9500   24.1762 C    0  0  0  0  0  0  0  0  0  0  0  0
    8.0708   11.7949   25.3372 C    0  0  0  0  0  0  0  0  0  0  0  0
    7.4053   10.5877   25.5976 C    0  0  0  0  0  0  0  0  0  0  0  0
    6.4601   10.5113   26.6322 C    0  0  0  0  0  0  0  0  0  0  0  0
    6.1430   11.6521   27.3849 C    0  0  0  0  0  0  0  0  0  0  0  0
    7.7483   12.9210   26.1002 C    0  0  0  0  0  0  0  0  0  0  0  0
    6.7540   12.8935   27.1072 C    0  0  0  0  0  0  0  0  0  0  0  0
    6.3457   14.1465   27.8797 C    0  0  0  0  0  0  0  0  0  0  0  0
    5.6619   14.1165   28.8888 O    0  0  0  0  0  0  0  0  0  0  0  0
    6.8267   15.3449   27.4366 N    0  0  0  0  0  0  0  0  0  0  0  0
    6.5053   15.8763   26.0731 C    0  0  0  0  0  0  0  0  0  0  0  0
    5.3579   16.9025   26.0823 C    0  0  0  0  0  0  0  0  0  0  0  0
    7.7536   16.1669   28.2667 C    0  0  0  0  0  0  0  0  0  0  0  0
    9.1385   15.5137   28.3202 C    0  0  0  0  0  0  0  0  0  0  0  0
   10.1926   15.8043   27.2900 C    0  0  0  0  0  0  0  0  0  0  0  0
   10.3613   16.2979   28.6928 C    0  0  0  0  0  0  0  0  0  0  0  0
   11.9472   14.7933   18.8529 H    0  0  0  0  0  0  0  0  0  0  0  0
   10.9508   15.5797   17.6531 H    0  0  0  0  0  0  0  0  0  0  0  0
   10.9211   14.1570   20.7501 H    0  0  0  0  0  0  0  0  0  0  0  0
   12.5066   15.9376   21.3524 H    0  0  0  0  0  0  0  0  0  0  0  0
   11.2176   16.9637   21.9578 H    0  0  0  0  0  0  0  0  0  0  0  0
   12.2599   14.3299   23.1159 H    0  0  0  0  0  0  0  0  0  0  0  0
   12.1960   15.8969   23.9030 H    0  0  0  0  0  0  0  0  0  0  0  0
   10.4743   14.2904   24.7578 H    0  0  0  0  0  0  0  0  0  0  0  0
    9.7910   15.7801   24.1965 H    0  0  0  0  0  0  0  0  0  0  0  0
    8.4778   14.4485   20.9744 H    0  0  0  0  0  0  0  0  0  0  0  0
    8.6891   15.9051   21.9028 H    0  0  0  0  0  0  0  0  0  0  0  0
    9.1301   11.0135   23.6119 H    0  0  0  0  0  0  0  0  0  0  0  0
   10.0597   12.1161   24.5689 H    0  0  0  0  0  0  0  0  0  0  0  0
    7.6027    9.7058   24.9926 H    0  0  0  0  0  0  0  0  0  0  0  0
    5.9624    9.5690   26.8381 H    0  0  0  0  0  0  0  0  0  0  0  0
    5.3987   11.5609   28.1755 H    0  0  0  0  0  0  0  0  0  0  0  0
    8.2775   13.8387   25.8735 H    0  0  0  0  0  0  0  0  0  0  0  0
    7.3975   16.3058   25.6101 H    0  0  0  0  0  0  0  0  0  0  0  0
    6.1959   15.0626   25.4101 H    0  0  0  0  0  0  0  0  0  0  0  0
    5.6461   17.8006   26.6319 H    0  0  0  0  0  0  0  0  0  0  0  0
    4.4673   16.4756   26.5506 H    0  0  0  0  0  0  0  0  0  0  0  0
    5.0932   17.1995   25.0652 H    0  0  0  0  0  0  0  0  0  0  0  0
    7.3490   16.2507   29.2797 H    0  0  0  0  0  0  0  0  0  0  0  0
    7.8141   17.1939   27.8958 H    0  0  0  0  0  0  0  0  0  0  0  0
    9.1103   14.4989   28.7115 H    0  0  0  0  0  0  0  0  0  0  0  0
   10.8258   14.9818   26.9725 H    0  0  0  0  0  0  0  0  0  0  0  0
    9.9838   16.5427   26.5224 H    0  0  0  0  0  0  0  0  0  0  0  0
   11.1159   15.8115   29.3033 H    0  0  0  0  0  0  0  0  0  0  0  0
   10.2716   17.3687   28.8594 H    0  0  0  0  0  0  0  0  0  0  0  0
 13 17  2  0  0  0  0
 12 13  1  0  0  0  0
 10 12  1  0  0  0  0
  9 10  1  0  0  0  0
  7  9  1  0  0  0  0
  6  7  1  0  0  0  0
  5  6  1  0  0  0  0
  4  5  1  0  0  0  0
  2  4  1  0  0  0  0
  1  2  2  0  0  0  0
  3  2  1  0  0  0  0
 28  3  1  0  0  0  0
 29  3  1  0  0  0  0
 30  4  1  0  0  0  0
 31  5  1  0  0  0  0
 32  5  1  0  0  0  0
 33  6  1  0  0  0  0
 34  6  1  0  0  0  0
 35  7  1  0  0  0  0
 36  7  1  0  0  0  0
  8  4  1  0  0  0  0
 37  8  1  0  0  0  0
 38  8  1  0  0  0  0
 11 10  2  0  0  0  0
 39 12  1  0  0  0  0
 40 12  1  0  0  0  0
 14 13  1  0  0  0  0
 41 14  1  0  0  0  0
 15 14  2  0  0  0  0
 42 15  1  0  0  0  0
 16 15  1  0  0  0  0
 43 16  1  0  0  0  0
 44 17  1  0  0  0  0
 18 16  2  0  0  0  0
 19 18  1  0  0  0  0
 20 19  2  0  0  0  0
 21 19  1  0  0  0  0
 22 21  1  0  0  0  0
 45 22  1  0  0  0  0
 46 22  1  0  0  0  0
 23 22  1  0  0  0  0
 47 23  1  0  0  0  0
 48 23  1  0  0  0  0
 49 23  1  0  0  0  0
 24 21  1  0  0  0  0
 50 24  1  0  0  0  0
 51 24  1  0  0  0  0
 25 24  1  0  0  0  0
 27 25  1  0  0  0  0
 52 25  1  0  0  0  0
 26 25  1  0  0  0  0
 53 26  1  0  0  0  0
 54 26  1  0  0  0  0
 55 27  1  0  0  0  0
 56 27  1  0  0  0  0
  9  8  1  0  0  0  0
 18 17  1  0  0  0  0
 27 26  1  0  0  0  0
M  END
>  <FittedScore>
-30.23

$$$$
