A71EV2A-x4463a_lowest-energy
  FITTED

 37 39     0  0  0  0  0  0  0999 V2000
    7.3275   13.2559   22.8771 O    0  0  0  0  0  0  0  0  0  0  0  0
    8.0547   13.9112   23.6145 C    0  0  0  0  0  0  0  0  0  0  0  0
    8.7729   14.9937   23.1426 N    0  0  0  0  0  0  0  0  0  0  0  0
    9.6287   15.9367   23.9496 C    0  0  0  0  0  0  0  0  0  0  0  0
   11.1077   15.9617   23.4740 C    0  0  0  0  0  0  0  0  0  0  0  0
   11.2187   16.2921   21.9602 C    0  0  0  0  0  0  0  0  0  0  0  0
    8.8010   15.4007   21.7029 C    0  0  0  0  0  0  0  0  0  0  0  0
   10.2522   15.4082   21.1114 C    0  0  0  0  0  0  0  0  0  0  0  0
   10.2708   15.8369   19.6484 C    0  0  0  0  0  0  0  0  0  0  0  0
    9.6888   16.8258   19.2436 O    0  0  0  0  0  0  0  0  0  0  0  0
   10.8345   14.9709   18.7783 N    0  0  0  0  0  0  0  0  0  0  0  0
    8.2412   13.4913   25.0851 C    0  0  0  0  0  0  0  0  0  0  0  0
    7.7001   12.1019   25.3904 C    0  0  0  0  0  0  0  0  0  0  0  0
    8.3571   10.9070   24.7614 C    0  0  0  0  0  0  0  0  0  0  0  0
    9.5222   10.9182   23.8772 N    0  0  0  0  0  0  0  0  0  0  0  0
    9.7381    9.3234   23.4382 S    0  0  0  0  0  0  0  0  0  0  0  0
    8.5111    8.5902   24.2828 N    0  0  0  0  0  0  0  0  0  0  0  0
    7.8294    9.6602   24.9872 C    0  0  0  0  0  0  0  0  0  0  0  0
    6.6437    9.5127   25.8844 C    0  0  0  0  0  0  0  0  0  0  0  0
    6.1418   10.6339   26.4218 C    0  0  0  0  0  0  0  0  0  0  0  0
    6.6409   11.8623   26.1867 C    0  0  0  0  0  0  0  0  0  0  0  0
    9.2131   16.9476   23.8704 H    0  0  0  0  0  0  0  0  0  0  0  0
    9.6214   15.7391   25.0208 H    0  0  0  0  0  0  0  0  0  0  0  0
   11.6609   16.7099   24.0491 H    0  0  0  0  0  0  0  0  0  0  0  0
   11.5800   14.9967   23.6775 H    0  0  0  0  0  0  0  0  0  0  0  0
   11.0000   17.3537   21.8071 H    0  0  0  0  0  0  0  0  0  0  0  0
   12.2486   16.1343   21.6291 H    0  0  0  0  0  0  0  0  0  0  0  0
    8.3530   16.3980   21.6163 H    0  0  0  0  0  0  0  0  0  0  0  0
    8.1826   14.7642   21.0664 H    0  0  0  0  0  0  0  0  0  0  0  0
   10.6160   14.3763   21.1826 H    0  0  0  0  0  0  0  0  0  0  0  0
   11.1411   14.0485   19.0937 H    0  0  0  0  0  0  0  0  0  0  0  0
   10.7922   15.1731   17.7827 H    0  0  0  0  0  0  0  0  0  0  0  0
    7.7725   14.2393   25.7317 H    0  0  0  0  0  0  0  0  0  0  0  0
    9.3047   13.4765   25.3370 H    0  0  0  0  0  0  0  0  0  0  0  0
    6.1828    8.5522   26.1033 H    0  0  0  0  0  0  0  0  0  0  0  0
    5.2783   10.5476   27.0758 H    0  0  0  0  0  0  0  0  0  0  0  0
    6.1438   12.7051   26.6621 H    0  0  0  0  0  0  0  0  0  0  0  0
  2  1  2  0  0  0  0
  3  2  1  0  0  0  0
  4  3  1  0  0  0  0
 22  4  1  0  0  0  0
 23  4  1  0  0  0  0
  5  4  1  0  0  0  0
 24  5  1  0  0  0  0
 25  5  1  0  0  0  0
  6  5  1  0  0  0  0
 26  6  1  0  0  0  0
 27  6  1  0  0  0  0
  7  3  1  0  0  0  0
 28  7  1  0  0  0  0
 29  7  1  0  0  0  0
  8  6  1  0  0  0  0
  9  8  1  0  0  0  0
 30  8  1  0  0  0  0
 10  9  2  0  0  0  0
 11  9  1  0  0  0  0
 31 11  1  0  0  0  0
 32 11  1  0  0  0  0
 12  2  1  0  0  0  0
 33 12  1  0  0  0  0
 34 12  1  0  0  0  0
 13 12  1  0  0  0  0
 21 13  2  0  0  0  0
 14 13  1  0  0  0  0
 15 14  2  0  0  0  0
 16 15  1  0  0  0  0
 17 16  1  0  0  0  0
 18 17  2  0  0  0  0
 19 18  1  0  0  0  0
 35 19  1  0  0  0  0
 20 19  2  0  0  0  0
 36 20  1  0  0  0  0
 37 21  1  0  0  0  0
  8  7  1  0  0  0  0
 18 14  1  0  0  0  0
 21 20  1  0  0  0  0
M  END
>  <FittedScore>
-32.01

$$$$
