A71EV2A-x3178a_best-RMSD
  FITTED

 33 35     0  0  0  0  0  0  0999 V2000
    8.4873   14.8754   23.9202 O    0  0  0  0  0  0  0  0  0  0  0  0
    8.9481   13.9737   23.2466 C    0  0  0  0  0  0  0  0  0  0  0  0
    9.7193   14.2031   22.1461 N    0  0  0  0  0  0  0  0  0  0  0  0
   10.1230   15.5295   21.6197 C    0  0  0  0  0  0  0  0  0  0  0  0
    9.4962   15.8210   20.2356 C    0  0  0  0  0  0  0  0  0  0  0  0
   10.5860   15.8537   19.2959 O    0  0  0  0  0  0  0  0  0  0  0  0
   11.7900   15.3247   19.8808 C    0  0  0  0  0  0  0  0  0  0  0  0
   11.6374   15.5904   21.3813 C    0  0  0  0  0  0  0  0  0  0  0  0
    8.6714   12.6088   23.5775 C    0  0  0  0  0  0  0  0  0  0  0  0
    9.2766   11.5671   23.0762 N    0  0  0  0  0  0  0  0  0  0  0  0
    7.6629   12.0959   24.5539 C    0  0  0  0  0  0  0  0  0  0  0  0
    7.7728   10.7220   24.5235 C    0  0  0  0  0  0  0  0  0  0  0  0
    8.7635   10.4345   23.6381 N    0  0  0  0  0  0  0  0  0  0  0  0
    9.2944    9.1159   23.2831 C    0  0  0  0  0  0  0  0  0  0  0  0
    6.9509    9.8946   25.3024 C    0  0  0  0  0  0  0  0  0  0  0  0
    6.0110   10.5029   26.1522 C    0  0  0  0  0  0  0  0  0  0  0  0
    5.8963   11.9090   26.1943 C    0  0  0  0  0  0  0  0  0  0  0  0
    6.7160   12.7192   25.3851 C    0  0  0  0  0  0  0  0  0  0  0  0
   10.0129   13.4107   21.5807 H    0  0  0  0  0  0  0  0  0  0  0  0
    9.8532   16.3341   22.3097 H    0  0  0  0  0  0  0  0  0  0  0  0
    8.7812   15.0542   19.9236 H    0  0  0  0  0  0  0  0  0  0  0  0
    8.9805   16.7849   20.2255 H    0  0  0  0  0  0  0  0  0  0  0  0
   11.8636   14.2510   19.6732 H    0  0  0  0  0  0  0  0  0  0  0  0
   12.6599   15.8372   19.4591 H    0  0  0  0  0  0  0  0  0  0  0  0
   12.1914   14.8560   21.9765 H    0  0  0  0  0  0  0  0  0  0  0  0
   12.0270   16.5843   21.6289 H    0  0  0  0  0  0  0  0  0  0  0  0
    9.9851    8.7509   24.0438 H    0  0  0  0  0  0  0  0  0  0  0  0
    9.8371    9.1281   22.3340 H    0  0  0  0  0  0  0  0  0  0  0  0
    8.4986    8.3758   23.1728 H    0  0  0  0  0  0  0  0  0  0  0  0
    7.0407    8.8125   25.2697 H    0  0  0  0  0  0  0  0  0  0  0  0
    5.3689    9.8888   26.7794 H    0  0  0  0  0  0  0  0  0  0  0  0
    5.1633   12.3723   26.8469 H    0  0  0  0  0  0  0  0  0  0  0  0
    6.6057   13.7997   25.4109 H    0  0  0  0  0  0  0  0  0  0  0  0
  2  9  1  0  0  0  0
  3  2  1  0  0  0  0
 19  3  1  0  0  0  0
  1  2  2  0  0  0  0
  4  3  1  0  0  0  0
  8  4  1  0  0  0  0
 20  4  1  0  0  0  0
  5  4  1  0  0  0  0
 21  5  1  0  0  0  0
 22  5  1  0  0  0  0
  6  5  1  0  0  0  0
  7  6  1  0  0  0  0
 23  7  1  0  0  0  0
 24  7  1  0  0  0  0
 25  8  1  0  0  0  0
 26  8  1  0  0  0  0
 10  9  2  0  0  0  0
 11  9  1  0  0  0  0
 18 11  2  0  0  0  0
 12 11  1  0  0  0  0
 13 10  1  0  0  0  0
 14 13  1  0  0  0  0
 27 14  1  0  0  0  0
 28 14  1  0  0  0  0
 29 14  1  0  0  0  0
 15 12  2  0  0  0  0
 30 15  1  0  0  0  0
 16 15  1  0  0  0  0
 31 16  1  0  0  0  0
 17 16  2  0  0  0  0
 32 17  1  0  0  0  0
 33 18  1  0  0  0  0
  8  7  1  0  0  0  0
 13 12  1  0  0  0  0
 18 17  1  0  0  0  0
M  END
>  <FittedScore>
-30.33

$$$$
