A71EV2A-x3178a_lowest-energy
  FITTED

 33 35     0  0  0  0  0  0  0999 V2000
    8.6377   14.9558   23.8275 O    0  0  0  0  0  0  0  0  0  0  0  0
    9.1417   14.0172   23.2353 C    0  0  0  0  0  0  0  0  0  0  0  0
    9.9940   14.1796   22.1839 N    0  0  0  0  0  0  0  0  0  0  0  0
   10.3974   15.4616   21.5514 C    0  0  0  0  0  0  0  0  0  0  0  0
    9.3042   16.0368   20.6148 C    0  0  0  0  0  0  0  0  0  0  0  0
    9.9497   16.3094   19.3519 O    0  0  0  0  0  0  0  0  0  0  0  0
   11.1263   15.4969   19.2039 C    0  0  0  0  0  0  0  0  0  0  0  0
   11.6345   15.3109   20.6401 C    0  0  0  0  0  0  0  0  0  0  0  0
    8.8132   12.6602   23.5623 C    0  0  0  0  0  0  0  0  0  0  0  0
    9.3817   11.5980   23.0590 N    0  0  0  0  0  0  0  0  0  0  0  0
    7.7725   12.1695   24.5150 C    0  0  0  0  0  0  0  0  0  0  0  0
    7.8200   10.7900   24.4591 C    0  0  0  0  0  0  0  0  0  0  0  0
    8.8082   10.4774   23.5796 N    0  0  0  0  0  0  0  0  0  0  0  0
    9.3496    9.1597   23.2436 C    0  0  0  0  0  0  0  0  0  0  0  0
    6.9550    9.9837   25.2125 C    0  0  0  0  0  0  0  0  0  0  0  0
    6.0217   10.6160   26.0515 C    0  0  0  0  0  0  0  0  0  0  0  0
    5.9627   12.0259   26.1111 C    0  0  0  0  0  0  0  0  0  0  0  0
    6.8400   12.8153   25.3420 C    0  0  0  0  0  0  0  0  0  0  0  0
   10.2868   13.3427   21.6822 H    0  0  0  0  0  0  0  0  0  0  0  0
   10.6281   16.1892   22.3372 H    0  0  0  0  0  0  0  0  0  0  0  0
    8.4900   15.3275   20.4333 H    0  0  0  0  0  0  0  0  0  0  0  0
    8.8707   16.9591   21.0128 H    0  0  0  0  0  0  0  0  0  0  0  0
   10.8570   14.5366   18.7533 H    0  0  0  0  0  0  0  0  0  0  0  0
   11.8548   16.0054   18.5672 H    0  0  0  0  0  0  0  0  0  0  0  0
   12.1218   14.3364   20.7459 H    0  0  0  0  0  0  0  0  0  0  0  0
   12.3792   16.0798   20.8709 H    0  0  0  0  0  0  0  0  0  0  0  0
   10.3888    9.0763   23.5688 H    0  0  0  0  0  0  0  0  0  0  0  0
    9.3236    8.9745   22.1683 H    0  0  0  0  0  0  0  0  0  0  0  0
    8.8085    8.3418   23.7203 H    0  0  0  0  0  0  0  0  0  0  0  0
    6.9961    8.8996   25.1619 H    0  0  0  0  0  0  0  0  0  0  0  0
    5.3392   10.0167   26.6508 H    0  0  0  0  0  0  0  0  0  0  0  0
    5.2292   12.5089   26.7505 H    0  0  0  0  0  0  0  0  0  0  0  0
    6.7866   13.8984   25.4058 H    0  0  0  0  0  0  0  0  0  0  0  0
  2  9  1  0  0  0  0
  3  2  1  0  0  0  0
 19  3  1  0  0  0  0
  1  2  2  0  0  0  0
  4  3  1  0  0  0  0
  8  4  1  0  0  0  0
 20  4  1  0  0  0  0
  5  4  1  0  0  0  0
 21  5  1  0  0  0  0
 22  5  1  0  0  0  0
  6  5  1  0  0  0  0
  7  6  1  0  0  0  0
 23  7  1  0  0  0  0
 24  7  1  0  0  0  0
 25  8  1  0  0  0  0
 26  8  1  0  0  0  0
 10  9  2  0  0  0  0
 11  9  1  0  0  0  0
 18 11  2  0  0  0  0
 12 11  1  0  0  0  0
 13 10  1  0  0  0  0
 14 13  1  0  0  0  0
 27 14  1  0  0  0  0
 28 14  1  0  0  0  0
 29 14  1  0  0  0  0
 15 12  2  0  0  0  0
 30 15  1  0  0  0  0
 16 15  1  0  0  0  0
 31 16  1  0  0  0  0
 17 16  2  0  0  0  0
 32 17  1  0  0  0  0
 33 18  1  0  0  0  0
  8  7  1  0  0  0  0
 13 12  1  0  0  0  0
 18 17  1  0  0  0  0
M  END
>  <FittedScore>
-30.50

$$$$
