A71EV2A-x5015b_lowest-energy
  FITTED

 39 40     0  0  0  0  0  0  0999 V2000
    9.9831   16.9162   19.1855 O    0  0  0  0  0  0  0  0  0  0  0  0
   10.3956   15.8389   19.5799 C    0  0  0  0  0  0  0  0  0  0  0  0
   10.7189   14.8654   18.7070 N    0  0  0  0  0  0  0  0  0  0  0  0
   10.4011   15.4263   21.0514 C    0  0  0  0  0  0  0  0  0  0  0  0
   11.2842   16.3803   21.9139 C    0  0  0  0  0  0  0  0  0  0  0  0
   11.2002   16.0211   23.4236 C    0  0  0  0  0  0  0  0  0  0  0  0
    9.7257   15.8409   23.8879 C    0  0  0  0  0  0  0  0  0  0  0  0
    8.9469   15.3106   21.6114 C    0  0  0  0  0  0  0  0  0  0  0  0
    8.9504   14.8709   23.0394 N    0  0  0  0  0  0  0  0  0  0  0  0
    8.4100   13.6818   23.4625 C    0  0  0  0  0  0  0  0  0  0  0  0
    7.5182   13.1314   22.8266 O    0  0  0  0  0  0  0  0  0  0  0  0
    9.0935   12.9858   24.6483 C    0  0  0  0  0  0  0  0  0  0  0  0
    8.7294   11.5189   24.7500 C    0  0  0  0  0  0  0  0  0  0  0  0
    9.3942   10.5625   23.9606 C    0  0  0  0  0  0  0  0  0  0  0  0
    8.9535    9.2356   23.9979 C    0  0  0  0  0  0  0  0  0  0  0  0
    7.8722    8.9103   24.8279 C    0  0  0  0  0  0  0  0  0  0  0  0
    7.6926   11.1942   25.5634 N    0  0  0  0  0  0  0  0  0  0  0  0
    7.2563    9.9027   25.6151 C    0  0  0  0  0  0  0  0  0  0  0  0
    6.1206    9.5126   26.5124 C    0  0  0  0  0  0  0  0  0  0  0  0
    5.4569   10.3944   27.2637 C    0  0  0  0  0  0  0  0  0  0  0  0
   10.6805   15.0426   17.7091 H    0  0  0  0  0  0  0  0  0  0  0  0
   10.9079   13.9161   19.0265 H    0  0  0  0  0  0  0  0  0  0  0  0
   10.8493   14.4285   21.1449 H    0  0  0  0  0  0  0  0  0  0  0  0
   12.3278   16.3208   21.5838 H    0  0  0  0  0  0  0  0  0  0  0  0
   10.9679   17.4190   21.7758 H    0  0  0  0  0  0  0  0  0  0  0  0
   11.7602   15.1014   23.6203 H    0  0  0  0  0  0  0  0  0  0  0  0
   11.6771   16.8131   24.0093 H    0  0  0  0  0  0  0  0  0  0  0  0
    9.7272   15.5814   24.9453 H    0  0  0  0  0  0  0  0  0  0  0  0
    9.2252   16.8132   23.8618 H    0  0  0  0  0  0  0  0  0  0  0  0
    8.3891   14.6212   20.9706 H    0  0  0  0  0  0  0  0  0  0  0  0
    8.4289   16.2718   21.5291 H    0  0  0  0  0  0  0  0  0  0  0  0
   10.1819   13.0648   24.5461 H    0  0  0  0  0  0  0  0  0  0  0  0
    8.8264   13.4978   25.5811 H    0  0  0  0  0  0  0  0  0  0  0  0
   10.2232   10.8413   23.3078 H    0  0  0  0  0  0  0  0  0  0  0  0
    9.4351    8.4776   23.3886 H    0  0  0  0  0  0  0  0  0  0  0  0
    7.5187    7.8812   24.8559 H    0  0  0  0  0  0  0  0  0  0  0  0
    5.7947    8.4729   26.5798 H    0  0  0  0  0  0  0  0  0  0  0  0
    5.6876   11.4580   27.2730 H    0  0  0  0  0  0  0  0  0  0  0  0
    4.6525   10.0482   27.9042 H    0  0  0  0  0  0  0  0  0  0  0  0
  9 10  1  0  0  0  0
  7  9  1  0  0  0  0
  6  7  1  0  0  0  0
  5  6  1  0  0  0  0
  4  5  1  0  0  0  0
  2  4  1  0  0  0  0
  1  2  2  0  0  0  0
  3  2  1  0  0  0  0
 21  3  1  0  0  0  0
 22  3  1  0  0  0  0
 23  4  1  0  0  0  0
 24  5  1  0  0  0  0
 25  5  1  0  0  0  0
 26  6  1  0  0  0  0
 27  6  1  0  0  0  0
 28  7  1  0  0  0  0
 29  7  1  0  0  0  0
  8  4  1  0  0  0  0
 30  8  1  0  0  0  0
 31  8  1  0  0  0  0
 11 10  2  0  0  0  0
 12 10  1  0  0  0  0
 32 12  1  0  0  0  0
 33 12  1  0  0  0  0
 13 12  1  0  0  0  0
 14 13  1  0  0  0  0
 34 14  1  0  0  0  0
 15 14  2  0  0  0  0
 35 15  1  0  0  0  0
 16 15  1  0  0  0  0
 36 16  1  0  0  0  0
 17 13  2  0  0  0  0
 18 16  2  0  0  0  0
 19 18  1  0  0  0  0
 37 19  1  0  0  0  0
 20 19  2  0  0  0  0
 38 20  1  0  0  0  0
 39 20  1  0  0  0  0
  9  8  1  0  0  0  0
 18 17  1  0  0  0  0
M  END
>  <FittedScore>
-35.50

$$$$
