A71EV2A-x5753a_lowest-energy
  FITTED

 43 45     0  0  0  0  0  0  0999 V2000
    4.2892   13.1829   26.3344 C    0  0  0  0  0  0  0  0  0  0  0  0
    5.3717   12.4297   27.1418 C    0  0  0  0  0  0  0  0  0  0  0  0
    6.0760   11.4353   26.3097 N    0  0  0  0  0  0  0  0  0  0  0  0
    5.6703   10.1290   26.3268 N    0  0  0  0  0  0  0  0  0  0  0  0
    6.6848    9.5438   25.4284 C    0  0  0  0  0  0  0  0  0  0  0  0
    7.5861   10.4844   25.0078 C    0  0  0  0  0  0  0  0  0  0  0  0
    7.1832   11.6753   25.5517 C    0  0  0  0  0  0  0  0  0  0  0  0
    7.9272   12.9795   25.3266 C    0  0  0  0  0  0  0  0  0  0  0  0
    8.9798   12.8998   24.1748 C    0  0  0  0  0  0  0  0  0  0  0  0
    9.9906   14.0490   24.2693 C    0  0  0  0  0  0  0  0  0  0  0  0
   10.5251   14.2657   25.3314 O    0  0  0  0  0  0  0  0  0  0  0  0
   10.4268   14.7142   23.1601 N    0  0  0  0  0  0  0  0  0  0  0  0
   11.6059   15.6146   23.1355 C    0  0  0  0  0  0  0  0  0  0  0  0
   11.8204   16.0858   21.6947 C    0  0  0  0  0  0  0  0  0  0  0  0
   11.1002   15.0120   20.8819 C    0  0  0  0  0  0  0  0  0  0  0  0
   10.6771   15.4207   19.4812 C    0  0  0  0  0  0  0  0  0  0  0  0
   11.5042   15.0089   18.5061 N    0  0  0  0  0  0  0  0  0  0  0  0
    9.6183   15.9543   19.2160 O    0  0  0  0  0  0  0  0  0  0  0  0
    9.9430   14.5651   21.7846 C    0  0  0  0  0  0  0  0  0  0  0  0
    9.7527   11.5352   24.1693 C    0  0  0  0  0  0  0  0  0  0  0  0
    8.8065   10.3048   24.1267 C    0  0  0  0  0  0  0  0  0  0  0  0
    4.6572   13.5025   25.3557 H    0  0  0  0  0  0  0  0  0  0  0  0
    3.9664   14.0756   26.8733 H    0  0  0  0  0  0  0  0  0  0  0  0
    3.4168   12.5449   26.1712 H    0  0  0  0  0  0  0  0  0  0  0  0
    4.8930   11.9559   28.0044 H    0  0  0  0  0  0  0  0  0  0  0  0
    6.0682   13.1593   27.5634 H    0  0  0  0  0  0  0  0  0  0  0  0
    6.6869    8.4879   25.1705 H    0  0  0  0  0  0  0  0  0  0  0  0
    8.3961   13.2325   26.2819 H    0  0  0  0  0  0  0  0  0  0  0  0
    7.2198   13.7834   25.1031 H    0  0  0  0  0  0  0  0  0  0  0  0
    8.3873   12.9572   23.2604 H    0  0  0  0  0  0  0  0  0  0  0  0
   12.4957   15.0832   23.4889 H    0  0  0  0  0  0  0  0  0  0  0  0
   11.4389   16.4726   23.7928 H    0  0  0  0  0  0  0  0  0  0  0  0
   12.8834   16.1437   21.4382 H    0  0  0  0  0  0  0  0  0  0  0  0
   11.3736   17.0745   21.5395 H    0  0  0  0  0  0  0  0  0  0  0  0
   11.7847   14.1562   20.8049 H    0  0  0  0  0  0  0  0  0  0  0  0
   11.2664   15.1787   17.5394 H    0  0  0  0  0  0  0  0  0  0  0  0
   12.3624   14.5006   18.7175 H    0  0  0  0  0  0  0  0  0  0  0  0
    9.7060   13.5319   21.5222 H    0  0  0  0  0  0  0  0  0  0  0  0
    9.0390   15.1720   21.6613 H    0  0  0  0  0  0  0  0  0  0  0  0
   10.3753   11.4594   25.0677 H    0  0  0  0  0  0  0  0  0  0  0  0
   10.4331   11.4966   23.3141 H    0  0  0  0  0  0  0  0  0  0  0  0
    9.3598    9.4163   24.4412 H    0  0  0  0  0  0  0  0  0  0  0  0
    8.4765   10.1292   23.1015 H    0  0  0  0  0  0  0  0  0  0  0  0
  8  9  1  0  0  0  0
  7  8  1  0  0  0  0
  6  7  2  0  0  0  0
  5  6  1  0  0  0  0
  4  5  2  0  0  0  0
  3  4  1  0  0  0  0
  2  3  1  0  0  0  0
  1  2  1  0  0  0  0
 22  1  1  0  0  0  0
 23  1  1  0  0  0  0
 24  1  1  0  0  0  0
 25  2  1  0  0  0  0
 26  2  1  0  0  0  0
 27  5  1  0  0  0  0
 28  8  1  0  0  0  0
 29  8  1  0  0  0  0
 10  9  1  0  0  0  0
 20  9  1  0  0  0  0
 30  9  1  0  0  0  0
 11 10  2  0  0  0  0
 12 10  1  0  0  0  0
 13 12  1  0  0  0  0
 14 13  1  0  0  0  0
 31 13  1  0  0  0  0
 32 13  1  0  0  0  0
 15 14  1  0  0  0  0
 33 14  1  0  0  0  0
 34 14  1  0  0  0  0
 16 15  1  0  0  0  0
 19 15  1  0  0  0  0
 35 15  1  0  0  0  0
 17 16  1  0  0  0  0
 18 16  2  0  0  0  0
 36 17  1  0  0  0  0
 37 17  1  0  0  0  0
 38 19  1  0  0  0  0
 39 19  1  0  0  0  0
 21 20  1  0  0  0  0
 40 20  1  0  0  0  0
 41 20  1  0  0  0  0
 42 21  1  0  0  0  0
 43 21  1  0  0  0  0
  7  3  1  0  0  0  0
 19 12  1  0  0  0  0
 21  6  1  0  0  0  0
M  END
>  <FittedScore>
-33.57

$$$$
