A71EV2A-x5753a_best-RMSD
  FITTED

 43 45     0  0  0  0  0  0  0999 V2000
    4.0486   13.4753   26.3622 C    0  0  0  0  0  0  0  0  0  0  0  0
    5.2284   12.8237   27.1186 C    0  0  0  0  0  0  0  0  0  0  0  0
    5.8875   11.7730   26.3154 N    0  0  0  0  0  0  0  0  0  0  0  0
    5.4935   10.4717   26.4463 N    0  0  0  0  0  0  0  0  0  0  0  0
    6.4978    9.7904   25.6185 C    0  0  0  0  0  0  0  0  0  0  0  0
    7.3943   10.6883   25.1142 C    0  0  0  0  0  0  0  0  0  0  0  0
    6.9977   11.9297   25.5468 C    0  0  0  0  0  0  0  0  0  0  0  0
    7.7400   13.2110   25.2078 C    0  0  0  0  0  0  0  0  0  0  0  0
    8.8852   12.9950   24.1652 C    0  0  0  0  0  0  0  0  0  0  0  0
    9.9507   14.0853   24.3010 C    0  0  0  0  0  0  0  0  0  0  0  0
   10.4766   14.2562   25.3740 O    0  0  0  0  0  0  0  0  0  0  0  0
   10.4568   14.7081   23.1998 N    0  0  0  0  0  0  0  0  0  0  0  0
   11.6243   15.6116   23.2078 C    0  0  0  0  0  0  0  0  0  0  0  0
   11.8697   16.0872   21.7736 C    0  0  0  0  0  0  0  0  0  0  0  0
   11.1958   15.0005   20.9355 C    0  0  0  0  0  0  0  0  0  0  0  0
   10.7519   15.4262   19.5501 C    0  0  0  0  0  0  0  0  0  0  0  0
   11.4694   14.9531   18.5217 N    0  0  0  0  0  0  0  0  0  0  0  0
    9.7797   16.1247   19.3437 O    0  0  0  0  0  0  0  0  0  0  0  0
   10.0349   14.5112   21.8111 C    0  0  0  0  0  0  0  0  0  0  0  0
    9.5895   11.5927   24.2545 C    0  0  0  0  0  0  0  0  0  0  0  0
    8.5999   10.4090   24.2521 C    0  0  0  0  0  0  0  0  0  0  0  0
    3.2812   12.7392   26.1122 H    0  0  0  0  0  0  0  0  0  0  0  0
    4.3847   13.9524   25.4370 H    0  0  0  0  0  0  0  0  0  0  0  0
    3.5774   14.2438   26.9826 H    0  0  0  0  0  0  0  0  0  0  0  0
    4.8631   12.4258   28.0668 H    0  0  0  0  0  0  0  0  0  0  0  0
    5.9342   13.6108   27.3957 H    0  0  0  0  0  0  0  0  0  0  0  0
    6.4896    8.7170   25.4565 H    0  0  0  0  0  0  0  0  0  0  0  0
    8.1118   13.6156   26.1512 H    0  0  0  0  0  0  0  0  0  0  0  0
    7.0354   13.9527   24.8181 H    0  0  0  0  0  0  0  0  0  0  0  0
    8.3715   13.0319   23.2020 H    0  0  0  0  0  0  0  0  0  0  0  0
   12.5080   15.0900   23.5911 H    0  0  0  0  0  0  0  0  0  0  0  0
   11.4245   16.4693   23.8575 H    0  0  0  0  0  0  0  0  0  0  0  0
   12.9351   16.1713   21.5408 H    0  0  0  0  0  0  0  0  0  0  0  0
   11.4042   17.0652   21.6197 H    0  0  0  0  0  0  0  0  0  0  0  0
   11.9065   14.1684   20.8417 H    0  0  0  0  0  0  0  0  0  0  0  0
   12.2687   14.3418   18.6584 H    0  0  0  0  0  0  0  0  0  0  0  0
   11.2012   15.1809   17.5800 H    0  0  0  0  0  0  0  0  0  0  0  0
    9.8605   13.4578   21.5757 H    0  0  0  0  0  0  0  0  0  0  0  0
    9.1020   15.0582   21.6372 H    0  0  0  0  0  0  0  0  0  0  0  0
   10.1843   11.5340   25.1693 H    0  0  0  0  0  0  0  0  0  0  0  0
   10.2861   11.4763   23.4188 H    0  0  0  0  0  0  0  0  0  0  0  0
    9.1032    9.5085   24.6139 H    0  0  0  0  0  0  0  0  0  0  0  0
    8.2655   10.2116   23.2319 H    0  0  0  0  0  0  0  0  0  0  0  0
  8  9  1  0  0  0  0
  7  8  1  0  0  0  0
  6  7  2  0  0  0  0
  5  6  1  0  0  0  0
  4  5  2  0  0  0  0
  3  4  1  0  0  0  0
  2  3  1  0  0  0  0
  1  2  1  0  0  0  0
 22  1  1  0  0  0  0
 23  1  1  0  0  0  0
 24  1  1  0  0  0  0
 25  2  1  0  0  0  0
 26  2  1  0  0  0  0
 27  5  1  0  0  0  0
 28  8  1  0  0  0  0
 29  8  1  0  0  0  0
 10  9  1  0  0  0  0
 20  9  1  0  0  0  0
 30  9  1  0  0  0  0
 11 10  2  0  0  0  0
 12 10  1  0  0  0  0
 13 12  1  0  0  0  0
 14 13  1  0  0  0  0
 31 13  1  0  0  0  0
 32 13  1  0  0  0  0
 15 14  1  0  0  0  0
 33 14  1  0  0  0  0
 34 14  1  0  0  0  0
 16 15  1  0  0  0  0
 19 15  1  0  0  0  0
 35 15  1  0  0  0  0
 17 16  1  0  0  0  0
 18 16  2  0  0  0  0
 36 17  1  0  0  0  0
 37 17  1  0  0  0  0
 38 19  1  0  0  0  0
 39 19  1  0  0  0  0
 21 20  1  0  0  0  0
 40 20  1  0  0  0  0
 41 20  1  0  0  0  0
 42 21  1  0  0  0  0
 43 21  1  0  0  0  0
  7  3  1  0  0  0  0
 19 12  1  0  0  0  0
 21  6  1  0  0  0  0
M  END
>  <FittedScore>
-31.87

$$$$
