A71EV2A-x4707a_lowest-energy
  FITTED

 34 35     0  0  0  0  0  0  0999 V2000
    7.0535   12.7822   22.4811 O    0  0  0  0  0  0  0  0  0  0  0  0
    7.9224   13.1546   23.2393 C    0  0  0  0  0  0  0  0  0  0  0  0
    8.1981   12.2753   24.4584 C    0  0  0  0  0  0  0  0  0  0  0  0
    9.4207   11.3601   24.1872 C    0  0  0  0  0  0  0  0  0  0  0  0
    9.8231   10.4216   25.4021 C    0  0  0  0  0  0  0  0  0  0  0  0
    8.9860    9.0541   24.6057 S    0  0  0  0  0  0  0  0  0  0  0  0
    9.1367   10.1393   23.1997 C    0  0  0  0  0  0  0  0  0  0  0  0
    8.7143   14.2418   22.9445 N    0  0  0  0  0  0  0  0  0  0  0  0
    9.6489   14.9516   23.8828 C    0  0  0  0  0  0  0  0  0  0  0  0
   11.0971   15.0712   23.3380 C    0  0  0  0  0  0  0  0  0  0  0  0
   11.1229   15.7157   21.9280 C    0  0  0  0  0  0  0  0  0  0  0  0
    8.7132   14.9059   21.5993 C    0  0  0  0  0  0  0  0  0  0  0  0
   10.1343   15.0021   20.9607 C    0  0  0  0  0  0  0  0  0  0  0  0
   10.1289   15.6582   19.5800 C    0  0  0  0  0  0  0  0  0  0  0  0
    9.3450   16.5224   19.2262 O    0  0  0  0  0  0  0  0  0  0  0  0
   11.0915   15.2338   18.7401 N    0  0  0  0  0  0  0  0  0  0  0  0
    7.3136   11.6631   24.6679 H    0  0  0  0  0  0  0  0  0  0  0  0
    8.3342   12.8720   25.3628 H    0  0  0  0  0  0  0  0  0  0  0  0
   10.2608   11.9758   23.8509 H    0  0  0  0  0  0  0  0  0  0  0  0
   10.8991   10.2440   25.4825 H    0  0  0  0  0  0  0  0  0  0  0  0
    9.5012   10.7417   26.3979 H    0  0  0  0  0  0  0  0  0  0  0  0
    9.9870    9.8676   22.5666 H    0  0  0  0  0  0  0  0  0  0  0  0
    8.2864   10.2301   22.5190 H    0  0  0  0  0  0  0  0  0  0  0  0
    9.2508   15.9532   24.0756 H    0  0  0  0  0  0  0  0  0  0  0  0
    9.7110   14.4907   24.8655 H    0  0  0  0  0  0  0  0  0  0  0  0
   11.6919   15.6857   24.0200 H    0  0  0  0  0  0  0  0  0  0  0  0
   11.5661   14.0817   23.3056 H    0  0  0  0  0  0  0  0  0  0  0  0
   10.8601   16.7750   22.0052 H    0  0  0  0  0  0  0  0  0  0  0  0
   12.1418   15.6654   21.5356 H    0  0  0  0  0  0  0  0  0  0  0  0
    8.2917   15.9089   21.7142 H    0  0  0  0  0  0  0  0  0  0  0  0
    8.0562   14.4076   20.8805 H    0  0  0  0  0  0  0  0  0  0  0  0
   10.4790   13.9707   20.8374 H    0  0  0  0  0  0  0  0  0  0  0  0
   11.7819   14.5570   19.0364 H    0  0  0  0  0  0  0  0  0  0  0  0
   11.0178   15.4655   17.7588 H    0  0  0  0  0  0  0  0  0  0  0  0
  2  8  1  0  0  0  0
  3  2  1  0  0  0  0
 17  3  1  0  0  0  0
  1  2  2  0  0  0  0
 18  3  1  0  0  0  0
  4  3  1  0  0  0  0
  7  4  1  0  0  0  0
 19  4  1  0  0  0  0
  5  4  1  0  0  0  0
 20  5  1  0  0  0  0
 21  5  1  0  0  0  0
  6  5  1  0  0  0  0
 22  7  1  0  0  0  0
 23  7  1  0  0  0  0
  9  8  1  0  0  0  0
 24  9  1  0  0  0  0
 25  9  1  0  0  0  0
 10  9  1  0  0  0  0
 26 10  1  0  0  0  0
 27 10  1  0  0  0  0
 11 10  1  0  0  0  0
 28 11  1  0  0  0  0
 29 11  1  0  0  0  0
 12  8  1  0  0  0  0
 30 12  1  0  0  0  0
 31 12  1  0  0  0  0
 13 11  1  0  0  0  0
 14 13  1  0  0  0  0
 32 13  1  0  0  0  0
 15 14  2  0  0  0  0
 16 14  1  0  0  0  0
 33 16  1  0  0  0  0
 34 16  1  0  0  0  0
  7  6  1  0  0  0  0
 13 12  1  0  0  0  0
M  END
>  <FittedScore>
-24.31

$$$$
