A71EV2A-x4707a_best-RMSD
  FITTED

 34 35     0  0  0  0  0  0  0999 V2000
    7.0354   12.8178   22.5834 O    0  0  0  0  0  0  0  0  0  0  0  0
    7.9144   13.2009   23.3334 C    0  0  0  0  0  0  0  0  0  0  0  0
    8.2504   12.3712   24.5716 C    0  0  0  0  0  0  0  0  0  0  0  0
    8.0070   10.8544   24.3435 C    0  0  0  0  0  0  0  0  0  0  0  0
    9.0534   10.1613   23.3617 C    0  0  0  0  0  0  0  0  0  0  0  0
    9.9806    9.6152   24.7903 S    0  0  0  0  0  0  0  0  0  0  0  0
    8.4050    9.9485   25.5744 C    0  0  0  0  0  0  0  0  0  0  0  0
    8.6526   14.3177   23.0280 N    0  0  0  0  0  0  0  0  0  0  0  0
    9.5504   15.0921   23.9472 C    0  0  0  0  0  0  0  0  0  0  0  0
   11.0289   15.1126   23.4613 C    0  0  0  0  0  0  0  0  0  0  0  0
   11.1416   15.6275   21.9974 C    0  0  0  0  0  0  0  0  0  0  0  0
    8.7022   14.8879   21.6472 C    0  0  0  0  0  0  0  0  0  0  0  0
   10.1464   14.8692   21.0736 C    0  0  0  0  0  0  0  0  0  0  0  0
   10.1803   15.3830   19.6384 C    0  0  0  0  0  0  0  0  0  0  0  0
    9.6952   16.4401   19.2717 O    0  0  0  0  0  0  0  0  0  0  0  0
   10.6764   14.5162   18.7474 N    0  0  0  0  0  0  0  0  0  0  0  0
    7.6403   12.7221   25.4062 H    0  0  0  0  0  0  0  0  0  0  0  0
    9.2952   12.5018   24.8648 H    0  0  0  0  0  0  0  0  0  0  0  0
    6.9650   10.6867   24.0454 H    0  0  0  0  0  0  0  0  0  0  0  0
    8.6437    9.3197   22.7970 H    0  0  0  0  0  0  0  0  0  0  0  0
    9.5399   10.7952   22.6160 H    0  0  0  0  0  0  0  0  0  0  0  0
    7.8030    9.0402   25.6719 H    0  0  0  0  0  0  0  0  0  0  0  0
    8.3882   10.4241   26.5617 H    0  0  0  0  0  0  0  0  0  0  0  0
    9.1791   16.1196   24.0090 H    0  0  0  0  0  0  0  0  0  0  0  0
    9.5176   14.7389   24.9768 H    0  0  0  0  0  0  0  0  0  0  0  0
   11.6210   15.7488   24.1221 H    0  0  0  0  0  0  0  0  0  0  0  0
   11.4481   14.1030   23.5332 H    0  0  0  0  0  0  0  0  0  0  0  0
   10.9429   16.7015   21.9685 H    0  0  0  0  0  0  0  0  0  0  0  0
   12.1656   15.4860   21.6410 H    0  0  0  0  0  0  0  0  0  0  0  0
    8.3142   15.9127   21.6634 H    0  0  0  0  0  0  0  0  0  0  0  0
    8.0609   14.3502   20.9415 H    0  0  0  0  0  0  0  0  0  0  0  0
   10.4586   13.8133   21.0924 H    0  0  0  0  0  0  0  0  0  0  0  0
   10.7233   14.7698   17.7705 H    0  0  0  0  0  0  0  0  0  0  0  0
   10.8961   13.5598   19.0285 H    0  0  0  0  0  0  0  0  0  0  0  0
  2  8  1  0  0  0  0
  3  2  1  0  0  0  0
 17  3  1  0  0  0  0
  1  2  2  0  0  0  0
 18  3  1  0  0  0  0
  4  3  1  0  0  0  0
  7  4  1  0  0  0  0
 19  4  1  0  0  0  0
  5  4  1  0  0  0  0
 20  5  1  0  0  0  0
 21  5  1  0  0  0  0
  6  5  1  0  0  0  0
 22  7  1  0  0  0  0
 23  7  1  0  0  0  0
  9  8  1  0  0  0  0
 24  9  1  0  0  0  0
 25  9  1  0  0  0  0
 10  9  1  0  0  0  0
 26 10  1  0  0  0  0
 27 10  1  0  0  0  0
 11 10  1  0  0  0  0
 28 11  1  0  0  0  0
 29 11  1  0  0  0  0
 12  8  1  0  0  0  0
 30 12  1  0  0  0  0
 31 12  1  0  0  0  0
 13 11  1  0  0  0  0
 14 13  1  0  0  0  0
 32 13  1  0  0  0  0
 15 14  2  0  0  0  0
 16 14  1  0  0  0  0
 33 16  1  0  0  0  0
 34 16  1  0  0  0  0
  7  6  1  0  0  0  0
 13 12  1  0  0  0  0
M  END
>  <FittedScore>
-24.22

$$$$
