A71EV2A-x5449a_lowest-energy
  FITTED

 46 47     0  0  0  0  0  0  0999 V2000
    9.8291   16.7774   19.1997 O    0  0  0  0  0  0  0  0  0  0  0  0
   10.3504   15.7392   19.5670 C    0  0  0  0  0  0  0  0  0  0  0  0
   10.8097   14.8336   18.6825 N    0  0  0  0  0  0  0  0  0  0  0  0
   10.3967   15.2819   21.0210 C    0  0  0  0  0  0  0  0  0  0  0  0
   11.2961   16.2228   21.8711 C    0  0  0  0  0  0  0  0  0  0  0  0
   11.3057   15.7582   23.3479 C    0  0  0  0  0  0  0  0  0  0  0  0
    9.8699   15.5559   23.9020 C    0  0  0  0  0  0  0  0  0  0  0  0
    8.9707   15.1333   21.6354 C    0  0  0  0  0  0  0  0  0  0  0  0
    8.9935   14.6612   23.0565 N    0  0  0  0  0  0  0  0  0  0  0  0
    8.1683   13.6521   23.5158 C    0  0  0  0  0  0  0  0  0  0  0  0
    7.3058   13.1540   22.8006 O    0  0  0  0  0  0  0  0  0  0  0  0
    8.3291   13.1724   24.9694 C    0  0  0  0  0  0  0  0  0  0  0  0
    7.4389   11.9818   25.3461 C    0  0  0  0  0  0  0  0  0  0  0  0
    7.7216   10.6441   24.9644 C    0  0  0  0  0  0  0  0  0  0  0  0
    9.1960   10.2942   24.0024 S    0  0  0  0  0  0  0  0  0  0  0  0
    9.2242    8.5413   23.5332 C    0  0  0  0  0  0  0  0  0  0  0  0
    6.2730   12.2669   26.0667 C    0  0  0  0  0  0  0  0  0  0  0  0
    5.3760   11.2551   26.4222 C    0  0  0  0  0  0  0  0  0  0  0  0
    3.9155   11.6907   27.3275 S    0  0  0  0  0  0  0  0  0  0  0  0
    3.5571   13.0560   27.0544 O    0  0  0  0  0  0  0  0  0  0  0  0
    2.9343   10.6646   27.1513 O    0  0  0  0  0  0  0  0  0  0  0  0
    4.4812   11.6040   29.0093 C    0  0  0  0  0  0  0  0  0  0  0  0
    5.6646    9.9247   26.0757 C    0  0  0  0  0  0  0  0  0  0  0  0
    6.8254    9.6252   25.3520 C    0  0  0  0  0  0  0  0  0  0  0  0
   10.8558   15.0586   17.7000 H    0  0  0  0  0  0  0  0  0  0  0  0
   11.0232   13.8877   18.9869 H    0  0  0  0  0  0  0  0  0  0  0  0
   10.8515   14.2844   21.0751 H    0  0  0  0  0  0  0  0  0  0  0  0
   12.3164   16.2181   21.4773 H    0  0  0  0  0  0  0  0  0  0  0  0
   10.9398   17.2564   21.8114 H    0  0  0  0  0  0  0  0  0  0  0  0
   11.8658   14.8219   23.4394 H    0  0  0  0  0  0  0  0  0  0  0  0
   11.8271   16.5005   23.9585 H    0  0  0  0  0  0  0  0  0  0  0  0
    9.9919   15.2044   24.9254 H    0  0  0  0  0  0  0  0  0  0  0  0
    9.3804   16.5298   23.9938 H    0  0  0  0  0  0  0  0  0  0  0  0
    8.4120   14.4534   20.9851 H    0  0  0  0  0  0  0  0  0  0  0  0
    8.4330   16.0879   21.5924 H    0  0  0  0  0  0  0  0  0  0  0  0
    9.3718   12.9125   25.1746 H    0  0  0  0  0  0  0  0  0  0  0  0
    8.1125   14.0165   25.6339 H    0  0  0  0  0  0  0  0  0  0  0  0
    9.2940    7.9283   24.4387 H    0  0  0  0  0  0  0  0  0  0  0  0
   10.1061    8.3460   22.9212 H    0  0  0  0  0  0  0  0  0  0  0  0
    8.3336    8.2741   22.9615 H    0  0  0  0  0  0  0  0  0  0  0  0
    6.0587   13.2962   26.3480 H    0  0  0  0  0  0  0  0  0  0  0  0
    5.2792   12.3305   29.1695 H    0  0  0  0  0  0  0  0  0  0  0  0
    4.8621   10.6020   29.2214 H    0  0  0  0  0  0  0  0  0  0  0  0
    3.6545   11.8292   29.6851 H    0  0  0  0  0  0  0  0  0  0  0  0
    4.9945    9.1168   26.3560 H    0  0  0  0  0  0  0  0  0  0  0  0
    7.0061    8.5878   25.0934 H    0  0  0  0  0  0  0  0  0  0  0  0
  9 10  1  0  0  0  0
  7  9  1  0  0  0  0
  6  7  1  0  0  0  0
  5  6  1  0  0  0  0
  4  5  1  0  0  0  0
  2  4  1  0  0  0  0
  1  2  2  0  0  0  0
  3  2  1  0  0  0  0
 25  3  1  0  0  0  0
 26  3  1  0  0  0  0
 27  4  1  0  0  0  0
 28  5  1  0  0  0  0
 29  5  1  0  0  0  0
 30  6  1  0  0  0  0
 31  6  1  0  0  0  0
 32  7  1  0  0  0  0
 33  7  1  0  0  0  0
  8  4  1  0  0  0  0
 34  8  1  0  0  0  0
 35  8  1  0  0  0  0
 11 10  2  0  0  0  0
 12 10  1  0  0  0  0
 36 12  1  0  0  0  0
 37 12  1  0  0  0  0
 13 12  1  0  0  0  0
 14 13  1  0  0  0  0
 24 14  2  0  0  0  0
 15 14  1  0  0  0  0
 16 15  1  0  0  0  0
 38 16  1  0  0  0  0
 39 16  1  0  0  0  0
 40 16  1  0  0  0  0
 17 13  2  0  0  0  0
 41 17  1  0  0  0  0
 18 17  1  0  0  0  0
 19 18  1  0  0  0  0
 20 19  2  0  0  0  0
 21 19  2  0  0  0  0
 22 19  1  0  0  0  0
 42 22  1  0  0  0  0
 43 22  1  0  0  0  0
 44 22  1  0  0  0  0
 23 18  2  0  0  0  0
 45 23  1  0  0  0  0
 46 24  1  0  0  0  0
  9  8  1  0  0  0  0
 24 23  1  0  0  0  0
M  END
>  <FittedScore>
-37.91

$$$$
