A71EV2A-x3483a_lowest-energy
  FITTED

 42 43     0  0  0  0  0  0  0999 V2000
    9.8376   16.8354   19.0876 O    0  0  0  0  0  0  0  0  0  0  0  0
   10.3692   15.7983   19.4512 C    0  0  0  0  0  0  0  0  0  0  0  0
   10.7833   14.8865   18.5481 N    0  0  0  0  0  0  0  0  0  0  0  0
   10.4297   15.3320   20.9042 C    0  0  0  0  0  0  0  0  0  0  0  0
   11.2806   16.2867   21.7832 C    0  0  0  0  0  0  0  0  0  0  0  0
   11.3093   15.7759   23.2474 C    0  0  0  0  0  0  0  0  0  0  0  0
    9.8838   15.4961   23.8050 C    0  0  0  0  0  0  0  0  0  0  0  0
    9.0075   15.1286   21.5098 C    0  0  0  0  0  0  0  0  0  0  0  0
    9.0157   14.6232   22.9273 N    0  0  0  0  0  0  0  0  0  0  0  0
    8.1753   13.6071   23.3463 C    0  0  0  0  0  0  0  0  0  0  0  0
    7.3906   13.0465   22.5961 O    0  0  0  0  0  0  0  0  0  0  0  0
    8.1186   13.3539   24.6852 N    0  0  0  0  0  0  0  0  0  0  0  0
    7.2849   12.4023   25.3672 C    0  0  0  0  0  0  0  0  0  0  0  0
    6.2098   12.9131   26.1155 C    0  0  0  0  0  0  0  0  0  0  0  0
    5.3535   12.0517   26.8128 C    0  0  0  0  0  0  0  0  0  0  0  0
    5.5686   10.6700   26.7703 C    0  0  0  0  0  0  0  0  0  0  0  0
    6.6370   10.1522   26.0301 C    0  0  0  0  0  0  0  0  0  0  0  0
    7.5149   11.0012   25.3203 C    0  0  0  0  0  0  0  0  0  0  0  0
    8.7526   10.4033   24.6327 C    0  0  0  0  0  0  0  0  0  0  0  0
    8.5439    9.0450   24.1698 O    0  0  0  0  0  0  0  0  0  0  0  0
    9.6901    8.3773   23.6041 C    0  0  0  0  0  0  0  0  0  0  0  0
   11.0168   13.9396   18.8456 H    0  0  0  0  0  0  0  0  0  0  0  0
   10.6932   15.0817   17.5603 H    0  0  0  0  0  0  0  0  0  0  0  0
   10.9193   14.3495   20.9435 H    0  0  0  0  0  0  0  0  0  0  0  0
   12.3016   16.3327   21.3943 H    0  0  0  0  0  0  0  0  0  0  0  0
   10.8757   17.3015   21.7522 H    0  0  0  0  0  0  0  0  0  0  0  0
   11.9111   14.8633   23.3042 H    0  0  0  0  0  0  0  0  0  0  0  0
   11.8083   16.5216   23.8742 H    0  0  0  0  0  0  0  0  0  0  0  0
   10.0356   15.0678   24.7953 H    0  0  0  0  0  0  0  0  0  0  0  0
    9.3678   16.4472   23.9673 H    0  0  0  0  0  0  0  0  0  0  0  0
    8.4736   14.4519   20.8368 H    0  0  0  0  0  0  0  0  0  0  0  0
    8.4503   16.0688   21.4755 H    0  0  0  0  0  0  0  0  0  0  0  0
    8.5952   13.9922   25.3047 H    0  0  0  0  0  0  0  0  0  0  0  0
    6.0292   13.9852   26.1516 H    0  0  0  0  0  0  0  0  0  0  0  0
    4.5230   12.4564   27.3852 H    0  0  0  0  0  0  0  0  0  0  0  0
    4.9091    9.9966   27.3158 H    0  0  0  0  0  0  0  0  0  0  0  0
    6.7891    9.0752   26.0378 H    0  0  0  0  0  0  0  0  0  0  0  0
    9.0637   10.9896   23.7665 H    0  0  0  0  0  0  0  0  0  0  0  0
    9.5810   10.4184   25.3470 H    0  0  0  0  0  0  0  0  0  0  0  0
   10.0909    8.9456   22.7604 H    0  0  0  0  0  0  0  0  0  0  0  0
    9.3853    7.3959   23.2363 H    0  0  0  0  0  0  0  0  0  0  0  0
   10.4709    8.2441   24.3556 H    0  0  0  0  0  0  0  0  0  0  0  0
  9 10  1  0  0  0  0
  7  9  1  0  0  0  0
  6  7  1  0  0  0  0
  5  6  1  0  0  0  0
  4  5  1  0  0  0  0
  2  4  1  0  0  0  0
  1  2  2  0  0  0  0
  3  2  1  0  0  0  0
 22  3  1  0  0  0  0
 23  3  1  0  0  0  0
 24  4  1  0  0  0  0
 25  5  1  0  0  0  0
 26  5  1  0  0  0  0
 27  6  1  0  0  0  0
 28  6  1  0  0  0  0
 29  7  1  0  0  0  0
 30  7  1  0  0  0  0
  8  4  1  0  0  0  0
 31  8  1  0  0  0  0
 32  8  1  0  0  0  0
 11 10  2  0  0  0  0
 12 10  1  0  0  0  0
 33 12  1  0  0  0  0
 13 12  1  0  0  0  0
 14 13  1  0  0  0  0
 34 14  1  0  0  0  0
 15 14  2  0  0  0  0
 35 15  1  0  0  0  0
 16 15  1  0  0  0  0
 36 16  1  0  0  0  0
 17 16  2  0  0  0  0
 37 17  1  0  0  0  0
 18 17  1  0  0  0  0
 19 18  1  0  0  0  0
 38 19  1  0  0  0  0
 39 19  1  0  0  0  0
 20 19  1  0  0  0  0
 21 20  1  0  0  0  0
 40 21  1  0  0  0  0
 41 21  1  0  0  0  0
 42 21  1  0  0  0  0
  9  8  1  0  0  0  0
 18 13  2  0  0  0  0
M  END
>  <FittedScore>
-33.31

$$$$
