A71EV2A-x3483a_best-RMSD
  FITTED

 42 43     0  0  0  0  0  0  0999 V2000
    9.9507   16.8912   19.1738 O    0  0  0  0  0  0  0  0  0  0  0  0
   10.3382   15.7905   19.5229 C    0  0  0  0  0  0  0  0  0  0  0  0
   10.6805   14.8740   18.5906 N    0  0  0  0  0  0  0  0  0  0  0  0
   10.3435   15.3064   20.9751 C    0  0  0  0  0  0  0  0  0  0  0  0
   11.4141   16.0563   21.8210 C    0  0  0  0  0  0  0  0  0  0  0  0
   11.3751   15.6381   23.3184 C    0  0  0  0  0  0  0  0  0  0  0  0
    9.9324   15.6420   23.9040 C    0  0  0  0  0  0  0  0  0  0  0  0
    8.9473   15.4330   21.6550 C    0  0  0  0  0  0  0  0  0  0  0  0
    8.9569   14.8744   23.0475 N    0  0  0  0  0  0  0  0  0  0  0  0
    8.2215   13.7614   23.4095 C    0  0  0  0  0  0  0  0  0  0  0  0
    7.5535   13.1296   22.6061 O    0  0  0  0  0  0  0  0  0  0  0  0
    8.0973   13.5260   24.7501 N    0  0  0  0  0  0  0  0  0  0  0  0
    7.3251   12.5086   25.4168 C    0  0  0  0  0  0  0  0  0  0  0  0
    6.3040   12.9499   26.2717 C    0  0  0  0  0  0  0  0  0  0  0  0
    5.4761   12.0305   26.9276 C    0  0  0  0  0  0  0  0  0  0  0  0
    5.6644   10.6583   26.7341 C    0  0  0  0  0  0  0  0  0  0  0  0
    6.6940   10.2050   25.9006 C    0  0  0  0  0  0  0  0  0  0  0  0
    7.5553   11.1170   25.2478 C    0  0  0  0  0  0  0  0  0  0  0  0
    8.7163   10.6071   24.3856 C    0  0  0  0  0  0  0  0  0  0  0  0
    9.0203    9.2114   24.6047 O    0  0  0  0  0  0  0  0  0  0  0  0
    9.8386    8.5461   23.6257 C    0  0  0  0  0  0  0  0  0  0  0  0
   10.6726   15.1270   17.6138 H    0  0  0  0  0  0  0  0  0  0  0  0
   10.8383   13.9008   18.8453 H    0  0  0  0  0  0  0  0  0  0  0  0
   10.6035   14.2414   20.9941 H    0  0  0  0  0  0  0  0  0  0  0  0
   12.4076   15.8570   21.4169 H    0  0  0  0  0  0  0  0  0  0  0  0
   11.2548   17.1336   21.7541 H    0  0  0  0  0  0  0  0  0  0  0  0
   11.8017   14.6365   23.4226 H    0  0  0  0  0  0  0  0  0  0  0  0
   12.0093   16.3098   23.9041 H    0  0  0  0  0  0  0  0  0  0  0  0
   10.0021   15.2510   24.9205 H    0  0  0  0  0  0  0  0  0  0  0  0
    9.5861   16.6747   24.0181 H    0  0  0  0  0  0  0  0  0  0  0  0
    8.1951   14.9655   21.0179 H    0  0  0  0  0  0  0  0  0  0  0  0
    8.6470   16.4877   21.6962 H    0  0  0  0  0  0  0  0  0  0  0  0
    8.3931   14.2693   25.3673 H    0  0  0  0  0  0  0  0  0  0  0  0
    6.1334   14.0161   26.4154 H    0  0  0  0  0  0  0  0  0  0  0  0
    4.6776   12.3835   27.5754 H    0  0  0  0  0  0  0  0  0  0  0  0
    5.0191    9.9427   27.2335 H    0  0  0  0  0  0  0  0  0  0  0  0
    6.8086    9.1323   25.7781 H    0  0  0  0  0  0  0  0  0  0  0  0
    8.4678   10.7493   23.3305 H    0  0  0  0  0  0  0  0  0  0  0  0
    9.6282   11.1731   24.6034 H    0  0  0  0  0  0  0  0  0  0  0  0
    9.2860    8.4461   22.6910 H    0  0  0  0  0  0  0  0  0  0  0  0
   10.0839    7.5493   23.9901 H    0  0  0  0  0  0  0  0  0  0  0  0
   10.7708    9.0931   23.4543 H    0  0  0  0  0  0  0  0  0  0  0  0
  9 10  1  0  0  0  0
  7  9  1  0  0  0  0
  6  7  1  0  0  0  0
  5  6  1  0  0  0  0
  4  5  1  0  0  0  0
  2  4  1  0  0  0  0
  1  2  2  0  0  0  0
  3  2  1  0  0  0  0
 22  3  1  0  0  0  0
 23  3  1  0  0  0  0
 24  4  1  0  0  0  0
 25  5  1  0  0  0  0
 26  5  1  0  0  0  0
 27  6  1  0  0  0  0
 28  6  1  0  0  0  0
 29  7  1  0  0  0  0
 30  7  1  0  0  0  0
  8  4  1  0  0  0  0
 31  8  1  0  0  0  0
 32  8  1  0  0  0  0
 11 10  2  0  0  0  0
 12 10  1  0  0  0  0
 33 12  1  0  0  0  0
 13 12  1  0  0  0  0
 14 13  1  0  0  0  0
 34 14  1  0  0  0  0
 15 14  2  0  0  0  0
 35 15  1  0  0  0  0
 16 15  1  0  0  0  0
 36 16  1  0  0  0  0
 17 16  2  0  0  0  0
 37 17  1  0  0  0  0
 18 17  1  0  0  0  0
 19 18  1  0  0  0  0
 38 19  1  0  0  0  0
 39 19  1  0  0  0  0
 20 19  1  0  0  0  0
 21 20  1  0  0  0  0
 40 21  1  0  0  0  0
 41 21  1  0  0  0  0
 42 21  1  0  0  0  0
  9  8  1  0  0  0  0
 18 13  2  0  0  0  0
M  END
>  <FittedScore>
-31.78

$$$$
