A71EV2A-x3488a_lowest-energy
  FITTED

 41 42     0  0  0  0  0  0  0999 V2000
    9.1788   15.9668   19.0121 O    0  0  0  0  0  0  0  0  0  0  0  0
   10.2329   15.6976   19.5513 C    0  0  0  0  0  0  0  0  0  0  0  0
   11.3350   15.5659   18.7940 N    0  0  0  0  0  0  0  0  0  0  0  0
   10.3735   15.2683   20.9951 C    0  0  0  0  0  0  0  0  0  0  0  0
   11.6127   15.2555   21.6850 C    0  0  0  0  0  0  0  0  0  0  0  0
   11.6842   14.8234   23.0170 C    0  0  0  0  0  0  0  0  0  0  0  0
   10.5323   14.3694   23.6728 C    0  0  0  0  0  0  0  0  0  0  0  0
    9.2211   14.8252   21.6747 C    0  0  0  0  0  0  0  0  0  0  0  0
    9.3045   14.3501   22.9885 C    0  0  0  0  0  0  0  0  0  0  0  0
    8.1585   13.8454   23.5680 O    0  0  0  0  0  0  0  0  0  0  0  0
    8.0029   12.5478   24.0657 C    0  0  0  0  0  0  0  0  0  0  0  0
    8.7267   11.4720   23.5138 C    0  0  0  0  0  0  0  0  0  0  0  0
    8.5176   10.1616   23.9594 C    0  0  0  0  0  0  0  0  0  0  0  0
    9.3013    9.0094   23.3529 C    0  0  0  0  0  0  0  0  0  0  0  0
    7.5580    9.9193   24.9522 C    0  0  0  0  0  0  0  0  0  0  0  0
    6.8388   10.9712   25.5306 C    0  0  0  0  0  0  0  0  0  0  0  0
    5.7852   10.5563   26.8479 CL   0  0  0  0  0  0  0  0  0  0  0  0
    7.0794   12.3008   25.1149 C    0  0  0  0  0  0  0  0  0  0  0  0
    6.4183   13.3959   25.7774 N    0  0  0  0  0  0  0  0  0  0  0  0
    7.0245   14.4831   26.3279 C    0  0  0  0  0  0  0  0  0  0  0  0
    8.2366   14.5502   26.4138 O    0  0  0  0  0  0  0  0  0  0  0  0
    6.1009   15.5634   26.8569 C    0  0  0  0  0  0  0  0  0  0  0  0
    6.7849   16.5194   27.7283 O    0  0  0  0  0  0  0  0  0  0  0  0
    5.9853   17.6181   28.2438 C    0  0  0  0  0  0  0  0  0  0  0  0
   11.2258   15.6372   17.7913 H    0  0  0  0  0  0  0  0  0  0  0  0
   12.1750   15.1512   19.1737 H    0  0  0  0  0  0  0  0  0  0  0  0
   12.5271   15.6046   21.2062 H    0  0  0  0  0  0  0  0  0  0  0  0
   12.6374   14.8295   23.5367 H    0  0  0  0  0  0  0  0  0  0  0  0
   10.5923   14.0259   24.7039 H    0  0  0  0  0  0  0  0  0  0  0  0
    8.2634   14.7948   21.1614 H    0  0  0  0  0  0  0  0  0  0  0  0
    9.4465   11.6528   22.7176 H    0  0  0  0  0  0  0  0  0  0  0  0
    9.3639    8.1795   24.0618 H    0  0  0  0  0  0  0  0  0  0  0  0
   10.3341    9.2891   23.1186 H    0  0  0  0  0  0  0  0  0  0  0  0
    8.8372    8.6606   22.4249 H    0  0  0  0  0  0  0  0  0  0  0  0
    7.3998    8.9027   25.3093 H    0  0  0  0  0  0  0  0  0  0  0  0
    5.4140   13.2933   25.8873 H    0  0  0  0  0  0  0  0  0  0  0  0
    5.6801   16.0936   25.9956 H    0  0  0  0  0  0  0  0  0  0  0  0
    5.2809   15.0997   27.4162 H    0  0  0  0  0  0  0  0  0  0  0  0
    6.6153   18.2659   28.8555 H    0  0  0  0  0  0  0  0  0  0  0  0
    5.1752   17.2304   28.8655 H    0  0  0  0  0  0  0  0  0  0  0  0
    5.5667   18.2115   27.4260 H    0  0  0  0  0  0  0  0  0  0  0  0
  9 10  1  0  0  0  0
  7  9  1  0  0  0  0
  6  7  2  0  0  0  0
  5  6  1  0  0  0  0
  4  5  2  0  0  0  0
  2  4  1  0  0  0  0
  1  2  2  0  0  0  0
  3  2  1  0  0  0  0
 25  3  1  0  0  0  0
 26  3  1  0  0  0  0
 27  5  1  0  0  0  0
 28  6  1  0  0  0  0
 29  7  1  0  0  0  0
  8  4  1  0  0  0  0
 30  8  1  0  0  0  0
 11 10  1  0  0  0  0
 12 11  1  0  0  0  0
 31 12  1  0  0  0  0
 13 12  2  0  0  0  0
 14 13  1  0  0  0  0
 32 14  1  0  0  0  0
 33 14  1  0  0  0  0
 34 14  1  0  0  0  0
 15 13  1  0  0  0  0
 35 15  1  0  0  0  0
 16 15  2  0  0  0  0
 17 16  1  0  0  0  0
 18 16  1  0  0  0  0
 19 18  1  0  0  0  0
 36 19  1  0  0  0  0
 20 19  1  0  0  0  0
 21 20  2  0  0  0  0
 22 20  1  0  0  0  0
 37 22  1  0  0  0  0
 38 22  1  0  0  0  0
 23 22  1  0  0  0  0
 24 23  1  0  0  0  0
 39 24  1  0  0  0  0
 40 24  1  0  0  0  0
 41 24  1  0  0  0  0
  9  8  2  0  0  0  0
 18 11  2  0  0  0  0
M  END
>  <FittedScore>
-37.94

$$$$
