A71EV2A-x3488a_best-RMSD
  FITTED

 41 42     0  0  0  0  0  0  0999 V2000
    9.3042   15.8779   18.8956 O    0  0  0  0  0  0  0  0  0  0  0  0
   10.3620   15.6179   19.4392 C    0  0  0  0  0  0  0  0  0  0  0  0
   11.4648   15.4726   18.6952 N    0  0  0  0  0  0  0  0  0  0  0  0
   10.5009   15.2307   20.8926 C    0  0  0  0  0  0  0  0  0  0  0  0
   11.7503   15.1464   21.5612 C    0  0  0  0  0  0  0  0  0  0  0  0
   11.8156   14.7336   22.9000 C    0  0  0  0  0  0  0  0  0  0  0  0
   10.6464   14.3660   23.5811 C    0  0  0  0  0  0  0  0  0  0  0  0
    9.3335   14.8925   21.6052 C    0  0  0  0  0  0  0  0  0  0  0  0
    9.4108   14.4233   22.9156 C    0  0  0  0  0  0  0  0  0  0  0  0
    8.2516   13.9613   23.4979 O    0  0  0  0  0  0  0  0  0  0  0  0
    8.0539   12.6722   24.0046 C    0  0  0  0  0  0  0  0  0  0  0  0
    8.7518   11.5745   23.4685 C    0  0  0  0  0  0  0  0  0  0  0  0
    8.5142   10.2723   23.9286 C    0  0  0  0  0  0  0  0  0  0  0  0
    9.2907    9.1112   23.3306 C    0  0  0  0  0  0  0  0  0  0  0  0
    7.5601   10.0601   24.9376 C    0  0  0  0  0  0  0  0  0  0  0  0
    6.8796   11.1408   25.5116 C    0  0  0  0  0  0  0  0  0  0  0  0
    5.8642   10.7728   26.8752 CL   0  0  0  0  0  0  0  0  0  0  0  0
    7.1134   12.4570   25.0443 C    0  0  0  0  0  0  0  0  0  0  0  0
    6.3769   13.5539   25.6167 N    0  0  0  0  0  0  0  0  0  0  0  0
    6.8545   14.7343   26.0924 C    0  0  0  0  0  0  0  0  0  0  0  0
    8.0473   14.9424   26.2217 O    0  0  0  0  0  0  0  0  0  0  0  0
    5.8140   15.6904   26.6688 C    0  0  0  0  0  0  0  0  0  0  0  0
    4.7618   16.0107   25.7051 O    0  0  0  0  0  0  0  0  0  0  0  0
    3.6267   16.7860   26.1747 C    0  0  0  0  0  0  0  0  0  0  0  0
   12.3176   15.1039   19.1030 H    0  0  0  0  0  0  0  0  0  0  0  0
   11.3596   15.4787   17.6929 H    0  0  0  0  0  0  0  0  0  0  0  0
   12.6781   15.4106   21.0577 H    0  0  0  0  0  0  0  0  0  0  0  0
   12.7745   14.6809   23.4085 H    0  0  0  0  0  0  0  0  0  0  0  0
   10.7004   14.0180   24.6082 H    0  0  0  0  0  0  0  0  0  0  0  0
    8.3565   14.9420   21.1271 H    0  0  0  0  0  0  0  0  0  0  0  0
    9.4789   11.7212   22.6681 H    0  0  0  0  0  0  0  0  0  0  0  0
   10.3511    9.3692   23.2551 H    0  0  0  0  0  0  0  0  0  0  0  0
    8.9275    8.8897   22.3255 H    0  0  0  0  0  0  0  0  0  0  0  0
    9.2046    8.1991   23.9273 H    0  0  0  0  0  0  0  0  0  0  0  0
    7.3694    9.0508   25.2993 H    0  0  0  0  0  0  0  0  0  0  0  0
    5.3900   13.3599   25.7548 H    0  0  0  0  0  0  0  0  0  0  0  0
    5.3788   15.2280   27.5583 H    0  0  0  0  0  0  0  0  0  0  0  0
    6.2875   16.6274   26.9884 H    0  0  0  0  0  0  0  0  0  0  0  0
    3.9672   17.7586   26.5505 H    0  0  0  0  0  0  0  0  0  0  0  0
    3.0900   16.2525   26.9646 H    0  0  0  0  0  0  0  0  0  0  0  0
    2.9424   16.9670   25.3438 H    0  0  0  0  0  0  0  0  0  0  0  0
  9 10  1  0  0  0  0
  7  9  1  0  0  0  0
  6  7  2  0  0  0  0
  5  6  1  0  0  0  0
  4  5  2  0  0  0  0
  2  4  1  0  0  0  0
  1  2  2  0  0  0  0
  3  2  1  0  0  0  0
 25  3  1  0  0  0  0
 26  3  1  0  0  0  0
 27  5  1  0  0  0  0
 28  6  1  0  0  0  0
 29  7  1  0  0  0  0
  8  4  1  0  0  0  0
 30  8  1  0  0  0  0
 11 10  1  0  0  0  0
 12 11  1  0  0  0  0
 31 12  1  0  0  0  0
 13 12  2  0  0  0  0
 14 13  1  0  0  0  0
 32 14  1  0  0  0  0
 33 14  1  0  0  0  0
 34 14  1  0  0  0  0
 15 13  1  0  0  0  0
 35 15  1  0  0  0  0
 16 15  2  0  0  0  0
 17 16  1  0  0  0  0
 18 16  1  0  0  0  0
 19 18  1  0  0  0  0
 36 19  1  0  0  0  0
 20 19  1  0  0  0  0
 21 20  2  0  0  0  0
 22 20  1  0  0  0  0
 37 22  1  0  0  0  0
 38 22  1  0  0  0  0
 23 22  1  0  0  0  0
 24 23  1  0  0  0  0
 39 24  1  0  0  0  0
 40 24  1  0  0  0  0
 41 24  1  0  0  0  0
  9  8  2  0  0  0  0
 18 11  2  0  0  0  0
M  END
>  <FittedScore>
-37.72

$$$$
