A71EV2A-x7446a_lowest-energy
  FITTED

 64 66     0  0  0  0  0  0  0999 V2000
    3.6919   19.4138   27.1049 C    0  0  0  0  0  0  0  0  0  0  0  0
    4.0004   17.9182   26.8768 C    0  0  0  0  0  0  0  0  0  0  0  0
    5.6575   17.4152   27.3417 S    0  0  0  0  0  0  0  0  0  0  0  0
    5.8339   17.7839   28.7176 O    0  0  0  0  0  0  0  0  0  0  0  0
    6.6159   17.9010   26.3957 O    0  0  0  0  0  0  0  0  0  0  0  0
    5.6990   15.7191   27.1777 N    0  0  0  0  0  0  0  0  0  0  0  0
    5.4340   15.1245   25.8410 C    0  0  0  0  0  0  0  0  0  0  0  0
    5.0410   13.6350   25.9511 C    0  0  0  0  0  0  0  0  0  0  0  0
    6.0198   12.8929   26.7785 N    0  0  0  0  0  0  0  0  0  0  0  0
    6.5817   11.7300   26.3073 C    0  0  0  0  0  0  0  0  0  0  0  0
    5.8944   10.6064   26.6375 N    0  0  0  0  0  0  0  0  0  0  0  0
    6.3144    9.4286   26.1165 C    0  0  0  0  0  0  0  0  0  0  0  0
    7.3887    9.2837   25.3002 N    0  0  0  0  0  0  0  0  0  0  0  0
    8.1162   10.3936   24.9884 C    0  0  0  0  0  0  0  0  0  0  0  0
    9.5217   10.1800   23.9090 S    0  0  0  0  0  0  0  0  0  0  0  0
    9.6319    8.4053   23.5235 C    0  0  0  0  0  0  0  0  0  0  0  0
    7.7459   11.6753   25.4837 C    0  0  0  0  0  0  0  0  0  0  0  0
    8.5452   12.9415   25.1065 C    0  0  0  0  0  0  0  0  0  0  0  0
    8.1974   13.5517   23.7356 C    0  0  0  0  0  0  0  0  0  0  0  0
    7.3723   12.9965   23.0270 O    0  0  0  0  0  0  0  0  0  0  0  0
    8.8909   14.6666   23.2973 N    0  0  0  0  0  0  0  0  0  0  0  0
    9.8844   15.4682   24.0884 C    0  0  0  0  0  0  0  0  0  0  0  0
   11.3243   15.3091   23.5255 C    0  0  0  0  0  0  0  0  0  0  0  0
   11.4042   15.7257   22.0289 C    0  0  0  0  0  0  0  0  0  0  0  0
   10.2747   15.0622   21.1838 C    0  0  0  0  0  0  0  0  0  0  0  0
   10.2722   15.6001   19.7469 C    0  0  0  0  0  0  0  0  0  0  0  0
   10.8363   14.7938   18.8275 N    0  0  0  0  0  0  0  0  0  0  0  0
    9.7414   16.6402   19.4074 O    0  0  0  0  0  0  0  0  0  0  0  0
    8.8713   15.1635   21.8781 C    0  0  0  0  0  0  0  0  0  0  0  0
    6.3695   13.4447   28.1162 C    0  0  0  0  0  0  0  0  0  0  0  0
    5.2547   13.1517   29.1641 C    0  0  0  0  0  0  0  0  0  0  0  0
    6.6854   14.9702   28.0038 C    0  0  0  0  0  0  0  0  0  0  0  0
    4.3443   20.0358   26.4859 H    0  0  0  0  0  0  0  0  0  0  0  0
    3.8458   19.6884   28.1499 H    0  0  0  0  0  0  0  0  0  0  0  0
    2.6558   19.6367   26.8323 H    0  0  0  0  0  0  0  0  0  0  0  0
    3.8397   17.7010   25.8205 H    0  0  0  0  0  0  0  0  0  0  0  0
    3.2945   17.3131   27.4539 H    0  0  0  0  0  0  0  0  0  0  0  0
    6.3079   15.2198   25.1955 H    0  0  0  0  0  0  0  0  0  0  0  0
    4.6297   15.6211   25.3027 H    0  0  0  0  0  0  0  0  0  0  0  0
    4.9775   13.2288   24.9367 H    0  0  0  0  0  0  0  0  0  0  0  0
    4.0357   13.5478   26.3705 H    0  0  0  0  0  0  0  0  0  0  0  0
    5.7512    8.5335   26.3708 H    0  0  0  0  0  0  0  0  0  0  0  0
    8.7271    8.0864   22.9991 H    0  0  0  0  0  0  0  0  0  0  0  0
    9.7459    7.8384   24.4498 H    0  0  0  0  0  0  0  0  0  0  0  0
   10.4966    8.2221   22.8811 H    0  0  0  0  0  0  0  0  0  0  0  0
    9.6147   12.7262   25.1475 H    0  0  0  0  0  0  0  0  0  0  0  0
    8.4053   13.6939   25.8743 H    0  0  0  0  0  0  0  0  0  0  0  0
    9.9022   15.2258   25.1516 H    0  0  0  0  0  0  0  0  0  0  0  0
    9.5981   16.5265   24.0638 H    0  0  0  0  0  0  0  0  0  0  0  0
   11.6396   14.2657   23.6300 H    0  0  0  0  0  0  0  0  0  0  0  0
   12.0233   15.9113   24.1107 H    0  0  0  0  0  0  0  0  0  0  0  0
   12.3743   15.4156   21.6338 H    0  0  0  0  0  0  0  0  0  0  0  0
   11.3593   16.8143   21.9433 H    0  0  0  0  0  0  0  0  0  0  0  0
   10.5055   13.9893   21.1479 H    0  0  0  0  0  0  0  0  0  0  0  0
   10.7262   14.9989   17.8429 H    0  0  0  0  0  0  0  0  0  0  0  0
   11.1268   13.8599   19.1130 H    0  0  0  0  0  0  0  0  0  0  0  0
    8.1509   14.6217   21.2622 H    0  0  0  0  0  0  0  0  0  0  0  0
    8.5311   16.2035   21.8732 H    0  0  0  0  0  0  0  0  0  0  0  0
    7.2829   12.9652   28.4864 H    0  0  0  0  0  0  0  0  0  0  0  0
    5.5549   13.4925   30.1580 H    0  0  0  0  0  0  0  0  0  0  0  0
    5.0498   12.0808   29.2377 H    0  0  0  0  0  0  0  0  0  0  0  0
    4.3178   13.6578   28.9149 H    0  0  0  0  0  0  0  0  0  0  0  0
    7.6853   15.0990   27.5811 H    0  0  0  0  0  0  0  0  0  0  0  0
    6.7615   15.3750   29.0139 H    0  0  0  0  0  0  0  0  0  0  0  0
 18 19  1  0  0  0  0
 17 18  1  0  0  0  0
 14 17  2  0  0  0  0
 13 14  1  0  0  0  0
 12 13  2  0  0  0  0
 11 12  1  0  0  0  0
 10 11  2  0  0  0  0
  9 10  1  0  0  0  0
  8  9  1  0  0  0  0
  7  8  1  0  0  0  0
  6  7  1  0  0  0  0
  3  6  1  0  0  0  0
  2  3  1  0  0  0  0
  1  2  1  0  0  0  0
 33  1  1  0  0  0  0
 34  1  1  0  0  0  0
 35  1  1  0  0  0  0
 36  2  1  0  0  0  0
 37  2  1  0  0  0  0
  4  3  2  0  0  0  0
  5  3  2  0  0  0  0
 38  7  1  0  0  0  0
 39  7  1  0  0  0  0
 40  8  1  0  0  0  0
 41  8  1  0  0  0  0
 30  9  1  0  0  0  0
 42 12  1  0  0  0  0
 15 14  1  0  0  0  0
 16 15  1  0  0  0  0
 43 16  1  0  0  0  0
 44 16  1  0  0  0  0
 45 16  1  0  0  0  0
 46 18  1  0  0  0  0
 47 18  1  0  0  0  0
 20 19  2  0  0  0  0
 21 19  1  0  0  0  0
 22 21  1  0  0  0  0
 23 22  1  0  0  0  0
 48 22  1  0  0  0  0
 49 22  1  0  0  0  0
 24 23  1  0  0  0  0
 50 23  1  0  0  0  0
 51 23  1  0  0  0  0
 25 24  1  0  0  0  0
 52 24  1  0  0  0  0
 53 24  1  0  0  0  0
 26 25  1  0  0  0  0
 29 25  1  0  0  0  0
 54 25  1  0  0  0  0
 27 26  1  0  0  0  0
 28 26  2  0  0  0  0
 55 27  1  0  0  0  0
 56 27  1  0  0  0  0
 57 29  1  0  0  0  0
 58 29  1  0  0  0  0
 31 30  1  0  0  0  0
 32 30  1  0  0  0  0
 59 30  1  0  0  0  0
 60 31  1  0  0  0  0
 61 31  1  0  0  0  0
 62 31  1  0  0  0  0
 63 32  1  0  0  0  0
 64 32  1  0  0  0  0
 17 10  1  0  0  0  0
 29 21  1  0  0  0  0
 32  6  1  0  0  0  0
M  END
>  <FittedScore>
-37.81

$$$$
