A71EV2A-x7446a_best-RMSD
  FITTED

 64 66     0  0  0  0  0  0  0999 V2000
    0.5150   13.8174   25.5075 C    0  0  0  0  0  0  0  0  0  0  0  0
    0.6381   13.9509   27.0434 C    0  0  0  0  0  0  0  0  0  0  0  0
    2.0518   14.8830   27.6409 S    0  0  0  0  0  0  0  0  0  0  0  0
    1.8974   15.0255   29.0621 O    0  0  0  0  0  0  0  0  0  0  0  0
    2.1743   16.0933   26.8803 O    0  0  0  0  0  0  0  0  0  0  0  0
    3.3771   13.8598   27.2783 N    0  0  0  0  0  0  0  0  0  0  0  0
    4.0156   12.9863   28.2984 C    0  0  0  0  0  0  0  0  0  0  0  0
    5.5744   13.1046   28.2574 C    0  0  0  0  0  0  0  0  0  0  0  0
    6.0964   12.9965   26.8530 N    0  0  0  0  0  0  0  0  0  0  0  0
    6.6264   11.7969   26.3611 C    0  0  0  0  0  0  0  0  0  0  0  0
    5.9464   10.6577   26.6898 N    0  0  0  0  0  0  0  0  0  0  0  0
    6.3439    9.4754   26.1616 C    0  0  0  0  0  0  0  0  0  0  0  0
    7.3877    9.3227   25.3121 N    0  0  0  0  0  0  0  0  0  0  0  0
    8.1193   10.4284   24.9894 C    0  0  0  0  0  0  0  0  0  0  0  0
    9.5060   10.2003   23.8708 S    0  0  0  0  0  0  0  0  0  0  0  0
    9.6059    8.4254   23.4943 C    0  0  0  0  0  0  0  0  0  0  0  0
    7.7769   11.7127   25.5113 C    0  0  0  0  0  0  0  0  0  0  0  0
    8.6175   12.9506   25.1323 C    0  0  0  0  0  0  0  0  0  0  0  0
    8.3380   13.5094   23.7217 C    0  0  0  0  0  0  0  0  0  0  0  0
    7.4879   12.9778   23.0190 O    0  0  0  0  0  0  0  0  0  0  0  0
    9.0853   14.5766   23.2564 N    0  0  0  0  0  0  0  0  0  0  0  0
   10.1128   15.3637   24.0296 C    0  0  0  0  0  0  0  0  0  0  0  0
   11.5237   15.3472   23.3766 C    0  0  0  0  0  0  0  0  0  0  0  0
   11.4870   15.8245   21.9030 C    0  0  0  0  0  0  0  0  0  0  0  0
   10.3803   15.0699   21.1122 C    0  0  0  0  0  0  0  0  0  0  0  0
   10.3065   15.5767   19.6724 C    0  0  0  0  0  0  0  0  0  0  0  0
   10.8763   14.7702   18.7547 N    0  0  0  0  0  0  0  0  0  0  0  0
    9.7571   16.6092   19.3347 O    0  0  0  0  0  0  0  0  0  0  0  0
    9.0007   15.0993   21.8486 C    0  0  0  0  0  0  0  0  0  0  0  0
    5.4654   13.9545   25.8862 C    0  0  0  0  0  0  0  0  0  0  0  0
    5.8831   15.4383   26.1169 C    0  0  0  0  0  0  0  0  0  0  0  0
    3.9248   13.7619   25.9022 C    0  0  0  0  0  0  0  0  0  0  0  0
    1.2370   13.1047   25.1076 H    0  0  0  0  0  0  0  0  0  0  0  0
    0.6563   14.7795   25.0111 H    0  0  0  0  0  0  0  0  0  0  0  0
   -0.4795   13.4542   25.2409 H    0  0  0  0  0  0  0  0  0  0  0  0
    0.6640   12.9588   27.5020 H    0  0  0  0  0  0  0  0  0  0  0  0
   -0.2563   14.4554   27.4189 H    0  0  0  0  0  0  0  0  0  0  0  0
    3.7218   11.9464   28.1279 H    0  0  0  0  0  0  0  0  0  0  0  0
    3.6912   13.2049   29.3172 H    0  0  0  0  0  0  0  0  0  0  0  0
    6.0010   12.3438   28.9162 H    0  0  0  0  0  0  0  0  0  0  0  0
    5.8623   14.0570   28.7130 H    0  0  0  0  0  0  0  0  0  0  0  0
    5.7810    8.5873   26.4379 H    0  0  0  0  0  0  0  0  0  0  0  0
    8.7277    8.1229   22.9196 H    0  0  0  0  0  0  0  0  0  0  0  0
    9.6564    7.8522   24.4209 H    0  0  0  0  0  0  0  0  0  0  0  0
   10.5018    8.2209   22.9051 H    0  0  0  0  0  0  0  0  0  0  0  0
    9.6753   12.6969   25.2321 H    0  0  0  0  0  0  0  0  0  0  0  0
    8.4745   13.7344   25.8730 H    0  0  0  0  0  0  0  0  0  0  0  0
   10.2357   15.0320   25.0570 H    0  0  0  0  0  0  0  0  0  0  0  0
    9.7729   16.4002   24.1131 H    0  0  0  0  0  0  0  0  0  0  0  0
   11.9444   14.3383   23.4238 H    0  0  0  0  0  0  0  0  0  0  0  0
   12.1984   15.9936   23.9446 H    0  0  0  0  0  0  0  0  0  0  0  0
   12.4617   15.6295   21.4422 H    0  0  0  0  0  0  0  0  0  0  0  0
   11.3247   16.9074   21.8580 H    0  0  0  0  0  0  0  0  0  0  0  0
   10.6786   14.0131   21.0955 H    0  0  0  0  0  0  0  0  0  0  0  0
   11.1658   13.8294   19.0189 H    0  0  0  0  0  0  0  0  0  0  0  0
   10.8796   15.0355   17.7759 H    0  0  0  0  0  0  0  0  0  0  0  0
    8.2974   14.5322   21.2311 H    0  0  0  0  0  0  0  0  0  0  0  0
    8.6089   16.1220   21.8684 H    0  0  0  0  0  0  0  0  0  0  0  0
    5.7543   13.7217   24.8634 H    0  0  0  0  0  0  0  0  0  0  0  0
    5.4776   16.0840   25.3334 H    0  0  0  0  0  0  0  0  0  0  0  0
    6.9682   15.5452   26.1043 H    0  0  0  0  0  0  0  0  0  0  0  0
    5.5194   15.8275   27.0712 H    0  0  0  0  0  0  0  0  0  0  0  0
    3.6982   12.7758   25.4857 H    0  0  0  0  0  0  0  0  0  0  0  0
    3.4686   14.4737   25.2099 H    0  0  0  0  0  0  0  0  0  0  0  0
 18 19  1  0  0  0  0
 17 18  1  0  0  0  0
 14 17  2  0  0  0  0
 13 14  1  0  0  0  0
 12 13  2  0  0  0  0
 11 12  1  0  0  0  0
 10 11  2  0  0  0  0
  9 10  1  0  0  0  0
  8  9  1  0  0  0  0
  7  8  1  0  0  0  0
  6  7  1  0  0  0  0
  3  6  1  0  0  0  0
  2  3  1  0  0  0  0
  1  2  1  0  0  0  0
 33  1  1  0  0  0  0
 34  1  1  0  0  0  0
 35  1  1  0  0  0  0
 36  2  1  0  0  0  0
 37  2  1  0  0  0  0
  4  3  2  0  0  0  0
  5  3  2  0  0  0  0
 38  7  1  0  0  0  0
 39  7  1  0  0  0  0
 40  8  1  0  0  0  0
 41  8  1  0  0  0  0
 30  9  1  0  0  0  0
 42 12  1  0  0  0  0
 15 14  1  0  0  0  0
 16 15  1  0  0  0  0
 43 16  1  0  0  0  0
 44 16  1  0  0  0  0
 45 16  1  0  0  0  0
 46 18  1  0  0  0  0
 47 18  1  0  0  0  0
 20 19  2  0  0  0  0
 21 19  1  0  0  0  0
 22 21  1  0  0  0  0
 23 22  1  0  0  0  0
 48 22  1  0  0  0  0
 49 22  1  0  0  0  0
 24 23  1  0  0  0  0
 50 23  1  0  0  0  0
 51 23  1  0  0  0  0
 25 24  1  0  0  0  0
 52 24  1  0  0  0  0
 53 24  1  0  0  0  0
 26 25  1  0  0  0  0
 29 25  1  0  0  0  0
 54 25  1  0  0  0  0
 27 26  1  0  0  0  0
 28 26  2  0  0  0  0
 55 27  1  0  0  0  0
 56 27  1  0  0  0  0
 57 29  1  0  0  0  0
 58 29  1  0  0  0  0
 31 30  1  0  0  0  0
 32 30  1  0  0  0  0
 59 30  1  0  0  0  0
 60 31  1  0  0  0  0
 61 31  1  0  0  0  0
 62 31  1  0  0  0  0
 63 32  1  0  0  0  0
 64 32  1  0  0  0  0
 17 10  1  0  0  0  0
 29 21  1  0  0  0  0
 32  6  1  0  0  0  0
M  END
>  <FittedScore>
-35.47

$$$$
