A71EV2A-x6808a_lowest-energy
  FITTED

 54 57     0  0  0  0  0  0  0999 V2000
    9.5480    8.8737   23.2975 C    0  0  0  0  0  0  0  0  0  0  0  0
    9.4212   10.5836   23.9101 S    0  0  0  0  0  0  0  0  0  0  0  0
    7.9456   10.6429   24.9242 C    0  0  0  0  0  0  0  0  0  0  0  0
    7.3585    9.4572   25.2643 N    0  0  0  0  0  0  0  0  0  0  0  0
    6.2532    9.4864   26.0516 C    0  0  0  0  0  0  0  0  0  0  0  0
    5.6543   10.6184   26.5014 N    0  0  0  0  0  0  0  0  0  0  0  0
    6.2073   11.8144   26.1498 C    0  0  0  0  0  0  0  0  0  0  0  0
    5.5401   12.9179   26.6339 N    0  0  0  0  0  0  0  0  0  0  0  0
    4.8134   13.8587   25.7446 C    0  0  0  0  0  0  0  0  0  0  0  0
    5.0394   15.1688   26.4500 C    0  0  0  0  0  0  0  0  0  0  0  0
    4.7156   16.4539   25.9943 C    0  0  0  0  0  0  0  0  0  0  0  0
    5.0203   17.5568   26.8152 C    0  0  0  0  0  0  0  0  0  0  0  0
    5.6386   17.3650   28.0680 C    0  0  0  0  0  0  0  0  0  0  0  0
    5.9670   16.0672   28.5064 C    0  0  0  0  0  0  0  0  0  0  0  0
    5.6599   14.9802   27.6753 C    0  0  0  0  0  0  0  0  0  0  0  0
    5.9527   13.5239   27.9201 C    0  0  0  0  0  0  0  0  0  0  0  0
    7.4011   11.8797   25.3706 C    0  0  0  0  0  0  0  0  0  0  0  0
    8.1149   13.2134   25.0420 C    0  0  0  0  0  0  0  0  0  0  0  0
    7.9550   13.6968   23.5895 C    0  0  0  0  0  0  0  0  0  0  0  0
    7.1239   13.1649   22.8686 O    0  0  0  0  0  0  0  0  0  0  0  0
    8.7880   14.6915   23.1163 N    0  0  0  0  0  0  0  0  0  0  0  0
    9.7054   15.5563   23.9403 C    0  0  0  0  0  0  0  0  0  0  0  0
   11.1737   15.5785   23.4275 C    0  0  0  0  0  0  0  0  0  0  0  0
   11.2358   16.0150   21.9455 C    0  0  0  0  0  0  0  0  0  0  0  0
   10.2667   15.1544   21.0860 C    0  0  0  0  0  0  0  0  0  0  0  0
   10.2827   15.6355   19.6373 C    0  0  0  0  0  0  0  0  0  0  0  0
   10.8586   14.7953   18.7602 N    0  0  0  0  0  0  0  0  0  0  0  0
    9.7368   16.6575   19.2576 O    0  0  0  0  0  0  0  0  0  0  0  0
    8.8201   15.1140   21.6802 C    0  0  0  0  0  0  0  0  0  0  0  0
   10.4149    8.7877   22.6398 H    0  0  0  0  0  0  0  0  0  0  0  0
    8.6495    8.6230   22.7339 H    0  0  0  0  0  0  0  0  0  0  0  0
    9.6659    8.1749   24.1307 H    0  0  0  0  0  0  0  0  0  0  0  0
    5.8104    8.5335   26.3308 H    0  0  0  0  0  0  0  0  0  0  0  0
    3.7475   13.6241   25.6982 H    0  0  0  0  0  0  0  0  0  0  0  0
    5.1983   13.8960   24.7235 H    0  0  0  0  0  0  0  0  0  0  0  0
    4.2374   16.5968   25.0283 H    0  0  0  0  0  0  0  0  0  0  0  0
    4.7776   18.5616   26.4794 H    0  0  0  0  0  0  0  0  0  0  0  0
    5.8654   18.2223   28.6986 H    0  0  0  0  0  0  0  0  0  0  0  0
    6.4496   15.9152   29.4700 H    0  0  0  0  0  0  0  0  0  0  0  0
    5.3616   13.1421   28.7560 H    0  0  0  0  0  0  0  0  0  0  0  0
    7.0139   13.3757   28.1394 H    0  0  0  0  0  0  0  0  0  0  0  0
    9.1699   13.0797   25.2915 H    0  0  0  0  0  0  0  0  0  0  0  0
    7.7930   14.0169   25.7033 H    0  0  0  0  0  0  0  0  0  0  0  0
    9.7347   15.2916   24.9951 H    0  0  0  0  0  0  0  0  0  0  0  0
    9.3109   16.5791   23.9303 H    0  0  0  0  0  0  0  0  0  0  0  0
   11.6270   14.5882   23.5320 H    0  0  0  0  0  0  0  0  0  0  0  0
   11.7693   16.2678   24.0297 H    0  0  0  0  0  0  0  0  0  0  0  0
   12.2573   15.9007   21.5727 H    0  0  0  0  0  0  0  0  0  0  0  0
   10.9798   17.0747   21.8600 H    0  0  0  0  0  0  0  0  0  0  0  0
   10.6393   14.1194   21.1290 H    0  0  0  0  0  0  0  0  0  0  0  0
   11.1001   13.8506   19.0644 H    0  0  0  0  0  0  0  0  0  0  0  0
   10.9420   15.0604   17.7835 H    0  0  0  0  0  0  0  0  0  0  0  0
    8.2348   14.4522   21.0344 H    0  0  0  0  0  0  0  0  0  0  0  0
    8.3465   16.0952   21.5932 H    0  0  0  0  0  0  0  0  0  0  0  0
 18 19  1  0  0  0  0
 17 18  1  0  0  0  0
  7 17  2  0  0  0  0
  6  7  1  0  0  0  0
  5  6  2  0  0  0  0
  4  5  1  0  0  0  0
  3  4  2  0  0  0  0
  2  3  1  0  0  0  0
  1  2  1  0  0  0  0
 30  1  1  0  0  0  0
 31  1  1  0  0  0  0
 32  1  1  0  0  0  0
 33  5  1  0  0  0  0
  8  7  1  0  0  0  0
  9  8  1  0  0  0  0
 10  9  1  0  0  0  0
 34  9  1  0  0  0  0
 35  9  1  0  0  0  0
 11 10  2  0  0  0  0
 12 11  1  0  0  0  0
 36 11  1  0  0  0  0
 13 12  2  0  0  0  0
 37 12  1  0  0  0  0
 14 13  1  0  0  0  0
 38 13  1  0  0  0  0
 15 14  2  0  0  0  0
 39 14  1  0  0  0  0
 16 15  1  0  0  0  0
 40 16  1  0  0  0  0
 41 16  1  0  0  0  0
 42 18  1  0  0  0  0
 43 18  1  0  0  0  0
 20 19  2  0  0  0  0
 21 19  1  0  0  0  0
 22 21  1  0  0  0  0
 23 22  1  0  0  0  0
 44 22  1  0  0  0  0
 45 22  1  0  0  0  0
 24 23  1  0  0  0  0
 46 23  1  0  0  0  0
 47 23  1  0  0  0  0
 25 24  1  0  0  0  0
 48 24  1  0  0  0  0
 49 24  1  0  0  0  0
 26 25  1  0  0  0  0
 29 25  1  0  0  0  0
 50 25  1  0  0  0  0
 27 26  1  0  0  0  0
 28 26  2  0  0  0  0
 51 27  1  0  0  0  0
 52 27  1  0  0  0  0
 53 29  1  0  0  0  0
 54 29  1  0  0  0  0
 15 10  1  0  0  0  0
 16  8  1  0  0  0  0
 17  3  1  0  0  0  0
 29 21  1  0  0  0  0
M  END
>  <FittedScore>
-34.11

$$$$
