A71EV2A-x6808a_best-RMSD
  FITTED

 54 57     0  0  0  0  0  0  0999 V2000
    9.6353    8.5670   23.5400 C    0  0  0  0  0  0  0  0  0  0  0  0
    9.4331   10.3427   23.9068 S    0  0  0  0  0  0  0  0  0  0  0  0
    7.9750   10.5073   24.9355 C    0  0  0  0  0  0  0  0  0  0  0  0
    7.2929    9.3737   25.2692 N    0  0  0  0  0  0  0  0  0  0  0  0
    6.1963    9.4890   26.0633 C    0  0  0  0  0  0  0  0  0  0  0  0
    5.6889   10.6668   26.5140 N    0  0  0  0  0  0  0  0  0  0  0  0
    6.3285   11.8146   26.1559 C    0  0  0  0  0  0  0  0  0  0  0  0
    5.7243   12.9757   26.5882 N    0  0  0  0  0  0  0  0  0  0  0  0
    4.9448   13.8575   25.6849 C    0  0  0  0  0  0  0  0  0  0  0  0
    4.8481   15.1172   26.4991 C    0  0  0  0  0  0  0  0  0  0  0  0
    4.2261   16.3235   26.1386 C    0  0  0  0  0  0  0  0  0  0  0  0
    4.2282   17.3877   27.0611 C    0  0  0  0  0  0  0  0  0  0  0  0
    4.8454   17.2345   28.3192 C    0  0  0  0  0  0  0  0  0  0  0  0
    5.4623   16.0182   28.6682 C    0  0  0  0  0  0  0  0  0  0  0  0
    5.4567   14.9669   27.7364 C    0  0  0  0  0  0  0  0  0  0  0  0
    6.0502   13.5891   27.8945 C    0  0  0  0  0  0  0  0  0  0  0  0
    7.5302   11.7845   25.3825 C    0  0  0  0  0  0  0  0  0  0  0  0
    8.3206   13.0690   25.0466 C    0  0  0  0  0  0  0  0  0  0  0  0
    8.0794   13.6287   23.6318 C    0  0  0  0  0  0  0  0  0  0  0  0
    7.2434   13.1093   22.9086 O    0  0  0  0  0  0  0  0  0  0  0  0
    8.8349   14.6976   23.1954 N    0  0  0  0  0  0  0  0  0  0  0  0
    9.7940   15.5119   24.0230 C    0  0  0  0  0  0  0  0  0  0  0  0
   11.2378   15.5348   23.4448 C    0  0  0  0  0  0  0  0  0  0  0  0
   11.2483   15.9842   21.9577 C    0  0  0  0  0  0  0  0  0  0  0  0
   10.2203   15.1717   21.1138 C    0  0  0  0  0  0  0  0  0  0  0  0
   10.2147   15.6403   19.6589 C    0  0  0  0  0  0  0  0  0  0  0  0
   10.7580   14.7836   18.7675 N    0  0  0  0  0  0  0  0  0  0  0  0
    9.6730   16.6608   19.2832 O    0  0  0  0  0  0  0  0  0  0  0  0
    8.8050   15.2115   21.7848 C    0  0  0  0  0  0  0  0  0  0  0  0
   10.5432    8.4150   22.9562 H    0  0  0  0  0  0  0  0  0  0  0  0
    8.7719    8.1993   22.9836 H    0  0  0  0  0  0  0  0  0  0  0  0
    9.7245    8.0117   24.4718 H    0  0  0  0  0  0  0  0  0  0  0  0
    5.6824    8.5744   26.3492 H    0  0  0  0  0  0  0  0  0  0  0  0
    3.9528   13.4476   25.4785 H    0  0  0  0  0  0  0  0  0  0  0  0
    5.4407   14.0512   24.7330 H    0  0  0  0  0  0  0  0  0  0  0  0
    3.7465   16.4311   25.1690 H    0  0  0  0  0  0  0  0  0  0  0  0
    3.7464   18.3285   26.8053 H    0  0  0  0  0  0  0  0  0  0  0  0
    4.8401   18.0586   29.0275 H    0  0  0  0  0  0  0  0  0  0  0  0
    5.9290   15.8974   29.6450 H    0  0  0  0  0  0  0  0  0  0  0  0
    5.5836   13.0566   28.7268 H    0  0  0  0  0  0  0  0  0  0  0  0
    7.1273   13.6499   28.0732 H    0  0  0  0  0  0  0  0  0  0  0  0
    9.3863   12.8782   25.1989 H    0  0  0  0  0  0  0  0  0  0  0  0
    8.0957   13.8555   25.7673 H    0  0  0  0  0  0  0  0  0  0  0  0
    9.8627   15.1993   25.0606 H    0  0  0  0  0  0  0  0  0  0  0  0
    9.4228   16.5429   24.0860 H    0  0  0  0  0  0  0  0  0  0  0  0
   11.6805   14.5382   23.5347 H    0  0  0  0  0  0  0  0  0  0  0  0
   11.8611   16.2163   24.0282 H    0  0  0  0  0  0  0  0  0  0  0  0
   12.2527   15.8570   21.5416 H    0  0  0  0  0  0  0  0  0  0  0  0
   11.0147   17.0542   21.8954 H    0  0  0  0  0  0  0  0  0  0  0  0
   10.5422   14.1231   21.1354 H    0  0  0  0  0  0  0  0  0  0  0  0
   10.9759   13.8364   19.0633 H    0  0  0  0  0  0  0  0  0  0  0  0
   10.7750   15.0224   17.7807 H    0  0  0  0  0  0  0  0  0  0  0  0
    8.1161   14.6567   21.1434 H    0  0  0  0  0  0  0  0  0  0  0  0
    8.4245   16.2390   21.7857 H    0  0  0  0  0  0  0  0  0  0  0  0
 18 19  1  0  0  0  0
 17 18  1  0  0  0  0
  7 17  2  0  0  0  0
  6  7  1  0  0  0  0
  5  6  2  0  0  0  0
  4  5  1  0  0  0  0
  3  4  2  0  0  0  0
  2  3  1  0  0  0  0
  1  2  1  0  0  0  0
 30  1  1  0  0  0  0
 31  1  1  0  0  0  0
 32  1  1  0  0  0  0
 33  5  1  0  0  0  0
  8  7  1  0  0  0  0
  9  8  1  0  0  0  0
 10  9  1  0  0  0  0
 34  9  1  0  0  0  0
 35  9  1  0  0  0  0
 11 10  2  0  0  0  0
 12 11  1  0  0  0  0
 36 11  1  0  0  0  0
 13 12  2  0  0  0  0
 37 12  1  0  0  0  0
 14 13  1  0  0  0  0
 38 13  1  0  0  0  0
 15 14  2  0  0  0  0
 39 14  1  0  0  0  0
 16 15  1  0  0  0  0
 40 16  1  0  0  0  0
 41 16  1  0  0  0  0
 42 18  1  0  0  0  0
 43 18  1  0  0  0  0
 20 19  2  0  0  0  0
 21 19  1  0  0  0  0
 22 21  1  0  0  0  0
 23 22  1  0  0  0  0
 44 22  1  0  0  0  0
 45 22  1  0  0  0  0
 24 23  1  0  0  0  0
 46 23  1  0  0  0  0
 47 23  1  0  0  0  0
 25 24  1  0  0  0  0
 48 24  1  0  0  0  0
 49 24  1  0  0  0  0
 26 25  1  0  0  0  0
 29 25  1  0  0  0  0
 50 25  1  0  0  0  0
 27 26  1  0  0  0  0
 28 26  2  0  0  0  0
 51 27  1  0  0  0  0
 52 27  1  0  0  0  0
 53 29  1  0  0  0  0
 54 29  1  0  0  0  0
 15 10  1  0  0  0  0
 16  8  1  0  0  0  0
 17  3  1  0  0  0  0
 29 21  1  0  0  0  0
M  END
>  <FittedScore>
-33.99

$$$$
