A71EV2A-x3510a_best-RMSD
  FITTED

 38 39     0  0  0  0  0  0  0999 V2000
    9.8216   17.0272   19.2631 O    0  0  0  0  0  0  0  0  0  0  0  0
   10.2435   15.9358   19.6152 C    0  0  0  0  0  0  0  0  0  0  0  0
   10.5456   14.9897   18.7015 N    0  0  0  0  0  0  0  0  0  0  0  0
   10.3018   15.4598   21.0689 C    0  0  0  0  0  0  0  0  0  0  0  0
   11.2268   16.3293   21.9720 C    0  0  0  0  0  0  0  0  0  0  0  0
   11.2778   15.7313   23.4078 C    0  0  0  0  0  0  0  0  0  0  0  0
    9.8643   15.4592   24.0005 C    0  0  0  0  0  0  0  0  0  0  0  0
    8.8903   15.3665   21.7213 C    0  0  0  0  0  0  0  0  0  0  0  0
    8.9382   14.7156   23.0707 N    0  0  0  0  0  0  0  0  0  0  0  0
    8.2154   13.5809   23.3584 C    0  0  0  0  0  0  0  0  0  0  0  0
    7.5659   12.9982   22.5083 O    0  0  0  0  0  0  0  0  0  0  0  0
    8.1614   13.1855   24.6579 N    0  0  0  0  0  0  0  0  0  0  0  0
    7.5112   12.0161   25.1692 C    0  0  0  0  0  0  0  0  0  0  0  0
    7.8582   10.7044   24.7489 C    0  0  0  0  0  0  0  0  0  0  0  0
    9.0814   10.4190   23.8689 C    0  0  0  0  0  0  0  0  0  0  0  0
    6.4782   12.2090   26.1036 C    0  0  0  0  0  0  0  0  0  0  0  0
    5.7527   11.1159   26.5888 C    0  0  0  0  0  0  0  0  0  0  0  0
    6.0488    9.8261   26.1319 C    0  0  0  0  0  0  0  0  0  0  0  0
    7.0890    9.6233   25.2136 C    0  0  0  0  0  0  0  0  0  0  0  0
   10.4614   15.2009   17.7162 H    0  0  0  0  0  0  0  0  0  0  0  0
   10.7160   14.0292   18.9973 H    0  0  0  0  0  0  0  0  0  0  0  0
   10.7239   14.4451   21.0840 H    0  0  0  0  0  0  0  0  0  0  0  0
   12.2363   16.3624   21.5534 H    0  0  0  0  0  0  0  0  0  0  0  0
   10.8647   17.3619   22.0157 H    0  0  0  0  0  0  0  0  0  0  0  0
   11.8478   14.7973   23.3927 H    0  0  0  0  0  0  0  0  0  0  0  0
   11.8201   16.4142   24.0676 H    0  0  0  0  0  0  0  0  0  0  0  0
   10.0273   14.9299   24.9400 H    0  0  0  0  0  0  0  0  0  0  0  0
    9.3940   16.4062   24.2767 H    0  0  0  0  0  0  0  0  0  0  0  0
    8.2273   14.8521   21.0192 H    0  0  0  0  0  0  0  0  0  0  0  0
    8.4544   16.3652   21.8228 H    0  0  0  0  0  0  0  0  0  0  0  0
    8.4016   13.8527   25.3864 H    0  0  0  0  0  0  0  0  0  0  0  0
    9.4732    9.4121   24.0185 H    0  0  0  0  0  0  0  0  0  0  0  0
    9.8970   11.1025   24.1193 H    0  0  0  0  0  0  0  0  0  0  0  0
    8.8468   10.5330   22.8082 H    0  0  0  0  0  0  0  0  0  0  0  0
    6.2171   13.2117   26.4400 H    0  0  0  0  0  0  0  0  0  0  0  0
    4.9449   11.2715   27.2991 H    0  0  0  0  0  0  0  0  0  0  0  0
    5.4679    8.9787   26.4857 H    0  0  0  0  0  0  0  0  0  0  0  0
    7.3051    8.6116   24.8792 H    0  0  0  0  0  0  0  0  0  0  0  0
  9 10  1  0  0  0  0
  7  9  1  0  0  0  0
  6  7  1  0  0  0  0
  5  6  1  0  0  0  0
  4  5  1  0  0  0  0
  2  4  1  0  0  0  0
  1  2  2  0  0  0  0
  3  2  1  0  0  0  0
 20  3  1  0  0  0  0
 21  3  1  0  0  0  0
 22  4  1  0  0  0  0
 23  5  1  0  0  0  0
 24  5  1  0  0  0  0
 25  6  1  0  0  0  0
 26  6  1  0  0  0  0
 27  7  1  0  0  0  0
 28  7  1  0  0  0  0
  8  4  1  0  0  0  0
 29  8  1  0  0  0  0
 30  8  1  0  0  0  0
 11 10  2  0  0  0  0
 12 10  1  0  0  0  0
 31 12  1  0  0  0  0
 13 12  1  0  0  0  0
 14 13  1  0  0  0  0
 19 14  2  0  0  0  0
 15 14  1  0  0  0  0
 32 15  1  0  0  0  0
 33 15  1  0  0  0  0
 34 15  1  0  0  0  0
 16 13  2  0  0  0  0
 35 16  1  0  0  0  0
 17 16  1  0  0  0  0
 36 17  1  0  0  0  0
 18 17  2  0  0  0  0
 37 18  1  0  0  0  0
 38 19  1  0  0  0  0
  9  8  1  0  0  0  0
 19 18  1  0  0  0  0
M  END
>  <FittedScore>
-32.33

$$$$
