A71EV2A-x7002a_lowest-energy
  FITTED

 45 48     0  0  0  0  0  0  0999 V2000
    9.5503    8.3433   23.2739 C    0  0  0  0  0  0  0  0  0  0  0  0
    9.6150   10.0693   23.8420 S    0  0  0  0  0  0  0  0  0  0  0  0
    8.0200   10.4205   24.5693 C    0  0  0  0  0  0  0  0  0  0  0  0
    7.2867    9.3925   25.1544 C    0  0  0  0  0  0  0  0  0  0  0  0
    6.0985    9.6389   25.8372 C    0  0  0  0  0  0  0  0  0  0  0  0
    5.5478   10.9269   25.8787 C    0  0  0  0  0  0  0  0  0  0  0  0
    4.2952   11.1335   26.5270 C    0  0  0  0  0  0  0  0  0  0  0  0
    3.4998   10.2363   27.2288 C    0  0  0  0  0  0  0  0  0  0  0  0
    2.2218   10.8490   27.5861 N    0  0  0  0  0  0  0  0  0  0  0  0
    2.5016   12.2371   27.2493 C    0  0  0  0  0  0  0  0  0  0  0  0
    3.6797   12.3609   26.5512 O    0  0  0  0  0  0  0  0  0  0  0  0
    6.2652   11.9756   25.2668 C    0  0  0  0  0  0  0  0  0  0  0  0
    7.5049   11.7363   24.6343 C    0  0  0  0  0  0  0  0  0  0  0  0
    8.2840   12.7643   24.1567 O    0  0  0  0  0  0  0  0  0  0  0  0
    8.2580   13.3129   22.9268 C    0  0  0  0  0  0  0  0  0  0  0  0
    7.2132   13.3863   22.2892 O    0  0  0  0  0  0  0  0  0  0  0  0
    9.4740   13.8107   22.4874 N    0  0  0  0  0  0  0  0  0  0  0  0
   10.8142   13.3898   23.0193 C    0  0  0  0  0  0  0  0  0  0  0  0
   11.6680   14.5640   23.6045 C    0  0  0  0  0  0  0  0  0  0  0  0
   11.0535   15.2188   24.8686 C    0  0  0  0  0  0  0  0  0  0  0  0
   10.4692   14.4485   25.7877 N    0  0  0  0  0  0  0  0  0  0  0  0
   11.2481   16.3277   25.2296 O    0  0  0  0  0  0  0  0  0  0  0  0
   11.9532   15.5975   22.4570 C    0  0  0  0  0  0  0  0  0  0  0  0
   10.5987   15.9658   21.8670 C    0  0  0  0  0  0  0  0  0  0  0  0
   10.2864   15.6126   20.4488 C    0  0  0  0  0  0  0  0  0  0  0  0
    9.4635   15.0142   21.5630 C    0  0  0  0  0  0  0  0  0  0  0  0
    8.6566    8.3054   22.6478 H    0  0  0  0  0  0  0  0  0  0  0  0
    9.5016    7.5918   24.0694 H    0  0  0  0  0  0  0  0  0  0  0  0
   10.4085    8.0247   22.6656 H    0  0  0  0  0  0  0  0  0  0  0  0
    7.6531    8.3699   25.1471 H    0  0  0  0  0  0  0  0  0  0  0  0
    5.6198    8.8126   26.3449 H    0  0  0  0  0  0  0  0  0  0  0  0
    3.7022    9.2088   27.5160 H    0  0  0  0  0  0  0  0  0  0  0  0
    1.8794   13.0597   27.6020 H    0  0  0  0  0  0  0  0  0  0  0  0
    5.8941   13.0010   25.2818 H    0  0  0  0  0  0  0  0  0  0  0  0
   11.3497   12.9973   22.1580 H    0  0  0  0  0  0  0  0  0  0  0  0
   10.7826   12.5572   23.7085 H    0  0  0  0  0  0  0  0  0  0  0  0
   12.6433   14.1771   23.9075 H    0  0  0  0  0  0  0  0  0  0  0  0
   10.6308   13.4707   25.7397 H    0  0  0  0  0  0  0  0  0  0  0  0
    9.8262   14.8577   26.4621 H    0  0  0  0  0  0  0  0  0  0  0  0
   12.6312   15.1832   21.7008 H    0  0  0  0  0  0  0  0  0  0  0  0
   12.4478   16.5062   22.8243 H    0  0  0  0  0  0  0  0  0  0  0  0
   10.2369   16.8853   22.3052 H    0  0  0  0  0  0  0  0  0  0  0  0
   11.0195   15.0543   19.8768 H    0  0  0  0  0  0  0  0  0  0  0  0
    9.8330   16.4346   19.9082 H    0  0  0  0  0  0  0  0  0  0  0  0
    8.4771   15.4119   21.7334 H    0  0  0  0  0  0  0  0  0  0  0  0
 14 15  1  0  0  0  0
 13 14  1  0  0  0  0
 12 13  2  0  0  0  0
  6 12  1  0  0  0  0
  5  6  2  0  0  0  0
  4  5  1  0  0  0  0
  3  4  2  0  0  0  0
  2  3  1  0  0  0  0
  1  2  1  0  0  0  0
 27  1  1  0  0  0  0
 28  1  1  0  0  0  0
 29  1  1  0  0  0  0
 30  4  1  0  0  0  0
 31  5  1  0  0  0  0
  7  6  1  0  0  0  0
  8  7  2  0  0  0  0
  9  8  1  0  0  0  0
 32  8  1  0  0  0  0
 10  9  2  0  0  0  0
 11 10  1  0  0  0  0
 33 10  1  0  0  0  0
 34 12  1  0  0  0  0
 16 15  2  0  0  0  0
 17 15  1  0  0  0  0
 18 17  1  0  0  0  0
 19 18  1  0  0  0  0
 35 18  1  0  0  0  0
 36 18  1  0  0  0  0
 20 19  1  0  0  0  0
 23 19  1  0  0  0  0
 37 19  1  0  0  0  0
 21 20  1  0  0  0  0
 22 20  2  0  0  0  0
 38 21  1  0  0  0  0
 39 21  1  0  0  0  0
 40 23  1  0  0  0  0
 41 23  1  0  0  0  0
 24 23  1  0  0  0  0
 25 24  1  0  0  0  0
 42 24  1  0  0  0  0
 43 25  1  0  0  0  0
 44 25  1  0  0  0  0
 26 25  1  0  0  0  0
 45 26  1  0  0  0  0
 11  7  1  0  0  0  0
 13  3  1  0  0  0  0
 26 17  1  0  0  0  0
 26 24  1  0  0  0  0
M  END
>  <FittedScore>
-24.03

$$$$
