A71EV2A-x5830a_best-RMSD
  FITTED

 39 41     0  0  0  0  0  0  0999 V2000
    9.0868    8.7663   23.3719 C    0  0  0  0  0  0  0  0  0  0  0  0
    9.1216   10.5546   23.7254 S    0  0  0  0  0  0  0  0  0  0  0  0
    7.7483   10.9422   24.7908 C    0  0  0  0  0  0  0  0  0  0  0  0
    7.1685    9.8999   25.5214 C    0  0  0  0  0  0  0  0  0  0  0  0
    6.0721   10.1378   26.3585 C    0  0  0  0  0  0  0  0  0  0  0  0
    5.5295   11.4293   26.4498 C    0  0  0  0  0  0  0  0  0  0  0  0
    4.0267   11.7599   27.5648 BR   0  0  0  0  0  0  0  0  0  0  0  0
    6.1218   12.4963   25.7605 C    0  0  0  0  0  0  0  0  0  0  0  0
    7.2412   12.2528   24.9730 C    0  0  0  0  0  0  0  0  0  0  0  0
    7.8577   13.3463   24.4918 O    0  0  0  0  0  0  0  0  0  0  0  0
    7.7838   13.6625   23.1993 C    0  0  0  0  0  0  0  0  0  0  0  0
    7.0071   13.1520   22.4147 O    0  0  0  0  0  0  0  0  0  0  0  0
    8.7538   14.5288   22.8235 N    0  0  0  0  0  0  0  0  0  0  0  0
    9.0042   14.9215   21.4373 C    0  0  0  0  0  0  0  0  0  0  0  0
   10.4965   15.2391   21.1287 C    0  0  0  0  0  0  0  0  0  0  0  0
   10.5996   15.8343   19.7525 C    0  0  0  0  0  0  0  0  0  0  0  0
   10.8779   14.9371   18.7621 N    0  0  0  0  0  0  0  0  0  0  0  0
   10.2052   16.9149   19.5376 O    0  0  0  0  0  0  0  0  0  0  0  0
   11.1466   16.2107   22.1681 C    0  0  0  0  0  0  0  0  0  0  0  0
   10.8845   15.7873   23.6020 C    0  0  0  0  0  0  0  0  0  0  0  0
   10.7419   14.3945   24.0977 C    0  0  0  0  0  0  0  0  0  0  0  0
    9.5466   15.2444   23.8773 C    0  0  0  0  0  0  0  0  0  0  0  0
    9.6117    8.1806   24.1195 H    0  0  0  0  0  0  0  0  0  0  0  0
    9.6329    8.6271   22.4617 H    0  0  0  0  0  0  0  0  0  0  0  0
    8.0718    8.3860   23.2229 H    0  0  0  0  0  0  0  0  0  0  0  0
    7.5905    8.8951   25.4748 H    0  0  0  0  0  0  0  0  0  0  0  0
    5.6613    9.3138   26.9401 H    0  0  0  0  0  0  0  0  0  0  0  0
    5.7349   13.5106   25.8449 H    0  0  0  0  0  0  0  0  0  0  0  0
    8.4447   15.8471   21.3402 H    0  0  0  0  0  0  0  0  0  0  0  0
    8.6257   14.1812   20.7112 H    0  0  0  0  0  0  0  0  0  0  0  0
   11.0945   14.3292   21.1146 H    0  0  0  0  0  0  0  0  0  0  0  0
   11.0453   13.9616   19.0133 H    0  0  0  0  0  0  0  0  0  0  0  0
   10.7102   15.2137   17.8005 H    0  0  0  0  0  0  0  0  0  0  0  0
   10.9288   17.2715   22.0194 H    0  0  0  0  0  0  0  0  0  0  0  0
   12.1901   16.0959   22.0004 H    0  0  0  0  0  0  0  0  0  0  0  0
   11.3977   16.4069   24.3175 H    0  0  0  0  0  0  0  0  0  0  0  0
   11.0739   14.2190   25.0990 H    0  0  0  0  0  0  0  0  0  0  0  0
   11.0318   13.6159   23.4019 H    0  0  0  0  0  0  0  0  0  0  0  0
    8.8868   15.4898   24.7189 H    0  0  0  0  0  0  0  0  0  0  0  0
 10 11  1  0  0  0  0
  9 10  1  0  0  0  0
  8  9  2  0  0  0  0
  6  8  1  0  0  0  0
  5  6  2  0  0  0  0
  4  5  1  0  0  0  0
  3  4  2  0  0  0  0
  2  3  1  0  0  0  0
  1  2  1  0  0  0  0
 23  1  1  0  0  0  0
 24  1  1  0  0  0  0
 25  1  1  0  0  0  0
 26  4  1  0  0  0  0
 27  5  1  0  0  0  0
  7  6  1  0  0  0  0
 28  8  1  0  0  0  0
 12 11  2  0  0  0  0
 13 11  1  0  0  0  0
 14 13  1  0  0  0  0
 15 14  1  0  0  0  0
 29 14  1  0  0  0  0
 30 14  1  0  0  0  0
 16 15  1  0  0  0  0
 19 15  1  0  0  0  0
 31 15  1  0  0  0  0
 17 16  1  0  0  0  0
 18 16  2  0  0  0  0
 32 17  1  0  0  0  0
 33 17  1  0  0  0  0
 34 19  1  0  0  0  0
 35 19  1  0  0  0  0
 20 19  1  0  0  0  0
 21 20  1  0  0  0  0
 36 20  1  0  0  0  0
 37 21  1  0  0  0  0
 38 21  1  0  0  0  0
 22 21  1  0  0  0  0
 39 22  1  0  0  0  0
  9  3  1  0  0  0  0
 22 13  1  0  0  0  0
 22 20  1  0  0  0  0
M  END
>  <FittedScore>
-29.21

$$$$
