A71EV2A-x5830a_lowest-energy
  FITTED

 39 41     0  0  0  0  0  0  0999 V2000
    9.2525    8.8167   23.4590 C    0  0  0  0  0  0  0  0  0  0  0  0
    9.1424   10.6238   23.6276 S    0  0  0  0  0  0  0  0  0  0  0  0
    7.8787   10.8930   24.8469 C    0  0  0  0  0  0  0  0  0  0  0  0
    7.2281    9.8059   25.4379 C    0  0  0  0  0  0  0  0  0  0  0  0
    6.2519    9.9976   26.4060 C    0  0  0  0  0  0  0  0  0  0  0  0
    5.8940   11.2911   26.8228 C    0  0  0  0  0  0  0  0  0  0  0  0
    4.6224   11.5389   28.2159 BR   0  0  0  0  0  0  0  0  0  0  0  0
    6.4935   12.3995   26.2147 C    0  0  0  0  0  0  0  0  0  0  0  0
    7.4584   12.1973   25.2240 C    0  0  0  0  0  0  0  0  0  0  0  0
    7.9275   13.3243   24.5849 O    0  0  0  0  0  0  0  0  0  0  0  0
    7.6857   13.7001   23.3079 C    0  0  0  0  0  0  0  0  0  0  0  0
    6.8690   13.1198   22.6244 O    0  0  0  0  0  0  0  0  0  0  0  0
    8.4964   14.7125   22.8581 N    0  0  0  0  0  0  0  0  0  0  0  0
    8.7315   15.2008   21.4957 C    0  0  0  0  0  0  0  0  0  0  0  0
   10.2644   15.1798   21.0568 C    0  0  0  0  0  0  0  0  0  0  0  0
   10.4829   15.8054   19.7190 C    0  0  0  0  0  0  0  0  0  0  0  0
   10.9283   15.0519   18.7338 N    0  0  0  0  0  0  0  0  0  0  0  0
   10.0221   16.9031   19.4681 O    0  0  0  0  0  0  0  0  0  0  0  0
   11.2608   15.8627   22.0626 C    0  0  0  0  0  0  0  0  0  0  0  0
   10.9330   15.4656   23.4830 C    0  0  0  0  0  0  0  0  0  0  0  0
   10.5366   14.0903   23.8909 C    0  0  0  0  0  0  0  0  0  0  0  0
    9.5125   15.2016   23.7924 C    0  0  0  0  0  0  0  0  0  0  0  0
    9.4771    8.3784   24.4344 H    0  0  0  0  0  0  0  0  0  0  0  0
   10.0639    8.5798   22.8053 H    0  0  0  0  0  0  0  0  0  0  0  0
    8.3471    8.3949   22.9990 H    0  0  0  0  0  0  0  0  0  0  0  0
    7.4918    8.7903   25.1850 H    0  0  0  0  0  0  0  0  0  0  0  0
    5.8000    9.1325   26.8619 H    0  0  0  0  0  0  0  0  0  0  0  0
    6.1864   13.4162   26.4882 H    0  0  0  0  0  0  0  0  0  0  0  0
    8.3884   16.2389   21.4960 H    0  0  0  0  0  0  0  0  0  0  0  0
    8.1087   14.6483   20.7994 H    0  0  0  0  0  0  0  0  0  0  0  0
   10.5714   14.1320   20.9323 H    0  0  0  0  0  0  0  0  0  0  0  0
   11.1841   14.0935   18.9050 H    0  0  0  0  0  0  0  0  0  0  0  0
   10.8763   15.3957   17.7708 H    0  0  0  0  0  0  0  0  0  0  0  0
   11.2364   16.9553   21.9506 H    0  0  0  0  0  0  0  0  0  0  0  0
   12.2912   15.5352   21.8769 H    0  0  0  0  0  0  0  0  0  0  0  0
   11.5179   15.9831   24.2242 H    0  0  0  0  0  0  0  0  0  0  0  0
   10.6908   13.7400   24.8826 H    0  0  0  0  0  0  0  0  0  0  0  0
   10.5679   13.2782   23.1528 H    0  0  0  0  0  0  0  0  0  0  0  0
    8.9439   15.6168   24.6205 H    0  0  0  0  0  0  0  0  0  0  0  0
 10 11  1  0  0  0  0
  9 10  1  0  0  0  0
  8  9  2  0  0  0  0
  6  8  1  0  0  0  0
  5  6  2  0  0  0  0
  4  5  1  0  0  0  0
  3  4  2  0  0  0  0
  2  3  1  0  0  0  0
  1  2  1  0  0  0  0
 23  1  1  0  0  0  0
 24  1  1  0  0  0  0
 25  1  1  0  0  0  0
 26  4  1  0  0  0  0
 27  5  1  0  0  0  0
  7  6  1  0  0  0  0
 28  8  1  0  0  0  0
 12 11  2  0  0  0  0
 13 11  1  0  0  0  0
 14 13  1  0  0  0  0
 15 14  1  0  0  0  0
 29 14  1  0  0  0  0
 30 14  1  0  0  0  0
 16 15  1  0  0  0  0
 19 15  1  0  0  0  0
 31 15  1  0  0  0  0
 17 16  1  0  0  0  0
 18 16  2  0  0  0  0
 32 17  1  0  0  0  0
 33 17  1  0  0  0  0
 34 19  1  0  0  0  0
 35 19  1  0  0  0  0
 20 19  1  0  0  0  0
 21 20  1  0  0  0  0
 36 20  1  0  0  0  0
 37 21  1  0  0  0  0
 38 21  1  0  0  0  0
 22 21  1  0  0  0  0
 39 22  1  0  0  0  0
  9  3  1  0  0  0  0
 22 13  1  0  0  0  0
 22 20  1  0  0  0  0
M  END
>  <FittedScore>
-28.78

$$$$
