A71EV2A-x4309b_lowest-energy
  FITTED

 48 49     0  0  0  0  0  0  0999 V2000
   10.0239   16.8313   19.4472 O    0  0  0  0  0  0  0  0  0  0  0  0
   10.5351   15.7756   19.7825 C    0  0  0  0  0  0  0  0  0  0  0  0
   10.8343   14.8414   18.8627 N    0  0  0  0  0  0  0  0  0  0  0  0
   10.5910   15.2895   21.2284 C    0  0  0  0  0  0  0  0  0  0  0  0
   11.5057   16.1819   22.1121 C    0  0  0  0  0  0  0  0  0  0  0  0
   11.4881   15.6860   23.5848 C    0  0  0  0  0  0  0  0  0  0  0  0
   10.0483   15.4578   24.1361 C    0  0  0  0  0  0  0  0  0  0  0  0
    9.1638   15.1963   21.8368 C    0  0  0  0  0  0  0  0  0  0  0  0
    9.1469   14.6553   23.2330 N    0  0  0  0  0  0  0  0  0  0  0  0
    8.3452   13.5922   23.5821 C    0  0  0  0  0  0  0  0  0  0  0  0
    7.6412   13.0160   22.7704 O    0  0  0  0  0  0  0  0  0  0  0  0
    8.2897   13.2531   24.8989 N    0  0  0  0  0  0  0  0  0  0  0  0
    7.6444   12.0918   25.4458 C    0  0  0  0  0  0  0  0  0  0  0  0
    7.9764   10.7783   25.0268 C    0  0  0  0  0  0  0  0  0  0  0  0
    9.0227   10.6035   24.1113 O    0  0  0  0  0  0  0  0  0  0  0  0
    9.5261    9.3416   23.6088 C    0  0  0  0  0  0  0  0  0  0  0  0
    7.2324    9.6967   25.5447 C    0  0  0  0  0  0  0  0  0  0  0  0
    6.1797    9.9156   26.4425 C    0  0  0  0  0  0  0  0  0  0  0  0
    6.6321   12.2986   26.3938 C    0  0  0  0  0  0  0  0  0  0  0  0
    5.8634   11.2174   26.8675 C    0  0  0  0  0  0  0  0  0  0  0  0
    4.5092   11.4993   27.9983 S    0  0  0  0  0  0  0  0  0  0  0  0
    3.5527   10.4255   27.9072 O    0  0  0  0  0  0  0  0  0  0  0  0
    4.0419   12.8526   27.8229 O    0  0  0  0  0  0  0  0  0  0  0  0
    5.2937   11.4133   29.6122 C    0  0  0  0  0  0  0  0  0  0  0  0
    5.9428   10.0524   29.9719 C    0  0  0  0  0  0  0  0  0  0  0  0
   10.8107   15.0716   17.8717 H    0  0  0  0  0  0  0  0  0  0  0  0
   10.9883   13.8826   19.1546 H    0  0  0  0  0  0  0  0  0  0  0  0
   11.0132   14.2748   21.2575 H    0  0  0  0  0  0  0  0  0  0  0  0
   12.5279   16.1390   21.7307 H    0  0  0  0  0  0  0  0  0  0  0  0
   11.1889   17.2295   22.0664 H    0  0  0  0  0  0  0  0  0  0  0  0
   12.0571   14.7536   23.6593 H    0  0  0  0  0  0  0  0  0  0  0  0
   12.0047   16.4166   24.2139 H    0  0  0  0  0  0  0  0  0  0  0  0
   10.1690   15.0021   25.1219 H    0  0  0  0  0  0  0  0  0  0  0  0
    9.5769   16.4289   24.3110 H    0  0  0  0  0  0  0  0  0  0  0  0
    8.5618   14.5996   21.1459 H    0  0  0  0  0  0  0  0  0  0  0  0
    8.6815   16.1780   21.8500 H    0  0  0  0  0  0  0  0  0  0  0  0
    8.6216   13.9144   25.6026 H    0  0  0  0  0  0  0  0  0  0  0  0
   10.3823    9.5496   22.9642 H    0  0  0  0  0  0  0  0  0  0  0  0
    8.7598    8.8223   23.0264 H    0  0  0  0  0  0  0  0  0  0  0  0
    9.8618    8.7052   24.4302 H    0  0  0  0  0  0  0  0  0  0  0  0
    7.4453    8.6743   25.2503 H    0  0  0  0  0  0  0  0  0  0  0  0
    5.6170    9.0617   26.8136 H    0  0  0  0  0  0  0  0  0  0  0  0
    6.4129   13.3127   26.7204 H    0  0  0  0  0  0  0  0  0  0  0  0
    6.0555   12.1957   29.6633 H    0  0  0  0  0  0  0  0  0  0  0  0
    4.5306   11.6632   30.3544 H    0  0  0  0  0  0  0  0  0  0  0  0
    6.3320   10.0755   30.9930 H    0  0  0  0  0  0  0  0  0  0  0  0
    6.7776    9.8280   29.3053 H    0  0  0  0  0  0  0  0  0  0  0  0
    5.2146    9.2388   29.9153 H    0  0  0  0  0  0  0  0  0  0  0  0
 10 12  1  0  0  0  0
  9 10  1  0  0  0  0
  7  9  1  0  0  0  0
  6  7  1  0  0  0  0
  5  6  1  0  0  0  0
  4  5  1  0  0  0  0
  2  4  1  0  0  0  0
  1  2  2  0  0  0  0
  3  2  1  0  0  0  0
 26  3  1  0  0  0  0
 27  3  1  0  0  0  0
 28  4  1  0  0  0  0
 29  5  1  0  0  0  0
 30  5  1  0  0  0  0
 31  6  1  0  0  0  0
 32  6  1  0  0  0  0
 33  7  1  0  0  0  0
 34  7  1  0  0  0  0
  8  4  1  0  0  0  0
 35  8  1  0  0  0  0
 36  8  1  0  0  0  0
 11 10  2  0  0  0  0
 37 12  1  0  0  0  0
 13 12  1  0  0  0  0
 14 13  1  0  0  0  0
 15 14  1  0  0  0  0
 16 15  1  0  0  0  0
 38 16  1  0  0  0  0
 39 16  1  0  0  0  0
 40 16  1  0  0  0  0
 17 14  2  0  0  0  0
 41 17  1  0  0  0  0
 18 17  1  0  0  0  0
 42 18  1  0  0  0  0
 19 13  2  0  0  0  0
 43 19  1  0  0  0  0
 20 18  2  0  0  0  0
 21 20  1  0  0  0  0
 22 21  2  0  0  0  0
 23 21  2  0  0  0  0
 24 21  1  0  0  0  0
 44 24  1  0  0  0  0
 45 24  1  0  0  0  0
 25 24  1  0  0  0  0
 46 25  1  0  0  0  0
 47 25  1  0  0  0  0
 48 25  1  0  0  0  0
  9  8  1  0  0  0  0
 20 19  1  0  0  0  0
M  END
>  <FittedScore>
-40.74

$$$$
