A71EV2A-x4309b_best-RMSD
  FITTED

 48 49     0  0  0  0  0  0  0999 V2000
   10.0368   16.7714   19.4210 O    0  0  0  0  0  0  0  0  0  0  0  0
   10.5459   15.7271   19.7801 C    0  0  0  0  0  0  0  0  0  0  0  0
   10.9832   14.8167   18.8824 N    0  0  0  0  0  0  0  0  0  0  0  0
   10.5758   15.2681   21.2258 C    0  0  0  0  0  0  0  0  0  0  0  0
   11.5234   16.1448   22.0924 C    0  0  0  0  0  0  0  0  0  0  0  0
   11.5193   15.6238   23.5547 C    0  0  0  0  0  0  0  0  0  0  0  0
   10.0812   15.4419   24.1283 C    0  0  0  0  0  0  0  0  0  0  0  0
    9.1483   15.2443   21.8407 C    0  0  0  0  0  0  0  0  0  0  0  0
    9.1345   14.6862   23.2296 N    0  0  0  0  0  0  0  0  0  0  0  0
    8.3172   13.6333   23.5786 C    0  0  0  0  0  0  0  0  0  0  0  0
    7.6500   13.0219   22.7640 O    0  0  0  0  0  0  0  0  0  0  0  0
    8.2087   13.3332   24.9002 N    0  0  0  0  0  0  0  0  0  0  0  0
    7.5645   12.1796   25.4738 C    0  0  0  0  0  0  0  0  0  0  0  0
    7.9168   10.8574   25.0963 C    0  0  0  0  0  0  0  0  0  0  0  0
    8.9445   10.6666   24.1643 O    0  0  0  0  0  0  0  0  0  0  0  0
    9.3985    9.4075   23.6138 C    0  0  0  0  0  0  0  0  0  0  0  0
    7.2101    9.7799   25.6703 C    0  0  0  0  0  0  0  0  0  0  0  0
    6.1634   10.0100   26.5686 C    0  0  0  0  0  0  0  0  0  0  0  0
    6.5440   12.4015   26.4080 C    0  0  0  0  0  0  0  0  0  0  0  0
    5.8052   11.3241   26.9221 C    0  0  0  0  0  0  0  0  0  0  0  0
    4.4283   11.6073   28.0070 S    0  0  0  0  0  0  0  0  0  0  0  0
    3.5097   10.5136   27.8666 O    0  0  0  0  0  0  0  0  0  0  0  0
    3.9377   12.9504   27.8526 O    0  0  0  0  0  0  0  0  0  0  0  0
    5.1773   11.5012   29.6200 C    0  0  0  0  0  0  0  0  0  0  0  0
    4.1600   11.6479   30.7669 C    0  0  0  0  0  0  0  0  0  0  0  0
   10.9270   15.0226   17.8943 H    0  0  0  0  0  0  0  0  0  0  0  0
   11.2393   13.8788   19.1952 H    0  0  0  0  0  0  0  0  0  0  0  0
   10.9522   14.2386   21.2665 H    0  0  0  0  0  0  0  0  0  0  0  0
   12.5391   16.1122   21.6867 H    0  0  0  0  0  0  0  0  0  0  0  0
   11.2070   17.1931   22.0692 H    0  0  0  0  0  0  0  0  0  0  0  0
   12.0486   14.6675   23.5974 H    0  0  0  0  0  0  0  0  0  0  0  0
   12.0781   16.3194   24.1839 H    0  0  0  0  0  0  0  0  0  0  0  0
   10.2071   14.9568   25.0964 H    0  0  0  0  0  0  0  0  0  0  0  0
    9.6548   16.4264   24.3428 H    0  0  0  0  0  0  0  0  0  0  0  0
    8.4920   14.6991   21.1554 H    0  0  0  0  0  0  0  0  0  0  0  0
    8.7313   16.2558   21.8711 H    0  0  0  0  0  0  0  0  0  0  0  0
    8.5127   14.0213   25.5866 H    0  0  0  0  0  0  0  0  0  0  0  0
   10.1949    9.6165   22.8941 H    0  0  0  0  0  0  0  0  0  0  0  0
    8.5840    8.8907   23.1003 H    0  0  0  0  0  0  0  0  0  0  0  0
    9.8060    8.7791   24.4121 H    0  0  0  0  0  0  0  0  0  0  0  0
    7.4503    8.7523   25.4184 H    0  0  0  0  0  0  0  0  0  0  0  0
    5.6361    9.1552   26.9852 H    0  0  0  0  0  0  0  0  0  0  0  0
    6.2970   13.4201   26.7024 H    0  0  0  0  0  0  0  0  0  0  0  0
    5.6967   10.5432   29.6980 H    0  0  0  0  0  0  0  0  0  0  0  0
    5.9270   12.2906   29.6968 H    0  0  0  0  0  0  0  0  0  0  0  0
    4.6582   11.5340   31.7295 H    0  0  0  0  0  0  0  0  0  0  0  0
    3.3830   10.8855   30.6909 H    0  0  0  0  0  0  0  0  0  0  0  0
    3.6827   12.6304   30.7379 H    0  0  0  0  0  0  0  0  0  0  0  0
 10 12  1  0  0  0  0
  9 10  1  0  0  0  0
  7  9  1  0  0  0  0
  6  7  1  0  0  0  0
  5  6  1  0  0  0  0
  4  5  1  0  0  0  0
  2  4  1  0  0  0  0
  1  2  2  0  0  0  0
  3  2  1  0  0  0  0
 26  3  1  0  0  0  0
 27  3  1  0  0  0  0
 28  4  1  0  0  0  0
 29  5  1  0  0  0  0
 30  5  1  0  0  0  0
 31  6  1  0  0  0  0
 32  6  1  0  0  0  0
 33  7  1  0  0  0  0
 34  7  1  0  0  0  0
  8  4  1  0  0  0  0
 35  8  1  0  0  0  0
 36  8  1  0  0  0  0
 11 10  2  0  0  0  0
 37 12  1  0  0  0  0
 13 12  1  0  0  0  0
 14 13  1  0  0  0  0
 15 14  1  0  0  0  0
 16 15  1  0  0  0  0
 38 16  1  0  0  0  0
 39 16  1  0  0  0  0
 40 16  1  0  0  0  0
 17 14  2  0  0  0  0
 41 17  1  0  0  0  0
 18 17  1  0  0  0  0
 42 18  1  0  0  0  0
 19 13  2  0  0  0  0
 43 19  1  0  0  0  0
 20 18  2  0  0  0  0
 21 20  1  0  0  0  0
 22 21  2  0  0  0  0
 23 21  2  0  0  0  0
 24 21  1  0  0  0  0
 44 24  1  0  0  0  0
 45 24  1  0  0  0  0
 25 24  1  0  0  0  0
 46 25  1  0  0  0  0
 47 25  1  0  0  0  0
 48 25  1  0  0  0  0
  9  8  1  0  0  0  0
 20 19  1  0  0  0  0
M  END
>  <FittedScore>
-39.63

$$$$
