A71EV2A-x5182a_best-RMSD
  FITTED

 39 40     0  0  0  0  0  0  0999 V2000
    9.6343   16.5959   19.2667 O    0  0  0  0  0  0  0  0  0  0  0  0
   10.1675   15.5604   19.6277 C    0  0  0  0  0  0  0  0  0  0  0  0
   10.7177   14.7155   18.7354 N    0  0  0  0  0  0  0  0  0  0  0  0
   10.1644   15.0665   21.0734 C    0  0  0  0  0  0  0  0  0  0  0  0
   11.1696   15.8755   21.9407 C    0  0  0  0  0  0  0  0  0  0  0  0
   11.1676   15.3439   23.3955 C    0  0  0  0  0  0  0  0  0  0  0  0
    9.7351   15.3019   23.9942 C    0  0  0  0  0  0  0  0  0  0  0  0
    8.7319   15.0790   21.6857 C    0  0  0  0  0  0  0  0  0  0  0  0
    8.7565   14.6167   23.0945 N    0  0  0  0  0  0  0  0  0  0  0  0
    7.2306   14.1311   23.7155 S    0  0  0  0  0  0  0  0  0  0  0  0
    6.6212   15.2573   24.3774 O    0  0  0  0  0  0  0  0  0  0  0  0
    6.4872   13.3632   22.7449 O    0  0  0  0  0  0  0  0  0  0  0  0
    7.8560   13.1189   24.9270 N    0  0  0  0  0  0  0  0  0  0  0  0
    7.2514   11.9446   25.2636 C    0  0  0  0  0  0  0  0  0  0  0  0
    7.7266   10.7145   24.7630 C    0  0  0  0  0  0  0  0  0  0  0  0
    9.1331   10.7037   23.6444 S    0  0  0  0  0  0  0  0  0  0  0  0
    9.4650    8.9661   23.2167 C    0  0  0  0  0  0  0  0  0  0  0  0
    6.1764   11.9629   26.1744 C    0  0  0  0  0  0  0  0  0  0  0  0
    5.5632   10.8240   26.5944 N    0  0  0  0  0  0  0  0  0  0  0  0
    6.0073    9.6384   26.1057 C    0  0  0  0  0  0  0  0  0  0  0  0
    7.0720    9.5428   25.1941 C    0  0  0  0  0  0  0  0  0  0  0  0
   10.7352   14.9616   17.7545 H    0  0  0  0  0  0  0  0  0  0  0  0
   10.9841   13.7740   19.0206 H    0  0  0  0  0  0  0  0  0  0  0  0
   10.4929   14.0179   21.0962 H    0  0  0  0  0  0  0  0  0  0  0  0
   12.1778   15.7923   21.5215 H    0  0  0  0  0  0  0  0  0  0  0  0
   10.9065   16.9382   21.9376 H    0  0  0  0  0  0  0  0  0  0  0  0
   11.6120   14.3443   23.4260 H    0  0  0  0  0  0  0  0  0  0  0  0
   11.7982   15.9865   24.0136 H    0  0  0  0  0  0  0  0  0  0  0  0
    9.8233   14.8386   24.9757 H    0  0  0  0  0  0  0  0  0  0  0  0
    9.4143   16.3303   24.1886 H    0  0  0  0  0  0  0  0  0  0  0  0
    8.1152   14.4442   21.0466 H    0  0  0  0  0  0  0  0  0  0  0  0
    8.3014   16.0826   21.6196 H    0  0  0  0  0  0  0  0  0  0  0  0
    8.0371   13.7171   25.7297 H    0  0  0  0  0  0  0  0  0  0  0  0
    9.7220    8.3928   24.1108 H    0  0  0  0  0  0  0  0  0  0  0  0
   10.3094    8.9445   22.5212 H    0  0  0  0  0  0  0  0  0  0  0  0
    8.5923    8.5194   22.7206 H    0  0  0  0  0  0  0  0  0  0  0  0
    5.8236   12.9139   26.5623 H    0  0  0  0  0  0  0  0  0  0  0  0
    5.5187    8.7195   26.4292 H    0  0  0  0  0  0  0  0  0  0  0  0
    7.3713    8.5583   24.8582 H    0  0  0  0  0  0  0  0  0  0  0  0
  7  9  1  0  0  0  0
  6  7  1  0  0  0  0
  5  6  1  0  0  0  0
  4  5  1  0  0  0  0
  2  4  1  0  0  0  0
  1  2  2  0  0  0  0
  3  2  1  0  0  0  0
 22  3  1  0  0  0  0
 23  3  1  0  0  0  0
 24  4  1  0  0  0  0
 25  5  1  0  0  0  0
 26  5  1  0  0  0  0
 27  6  1  0  0  0  0
 28  6  1  0  0  0  0
 29  7  1  0  0  0  0
 30  7  1  0  0  0  0
  8  4  1  0  0  0  0
 31  8  1  0  0  0  0
 32  8  1  0  0  0  0
 10  9  1  0  0  0  0
 11 10  2  0  0  0  0
 12 10  2  0  0  0  0
 13 10  1  0  0  0  0
 33 13  1  0  0  0  0
 14 13  1  0  0  0  0
 15 14  1  0  0  0  0
 21 15  2  0  0  0  0
 16 15  1  0  0  0  0
 17 16  1  0  0  0  0
 34 17  1  0  0  0  0
 35 17  1  0  0  0  0
 36 17  1  0  0  0  0
 18 14  2  0  0  0  0
 37 18  1  0  0  0  0
 19 18  1  0  0  0  0
 20 19  2  0  0  0  0
 38 20  1  0  0  0  0
 39 21  1  0  0  0  0
  9  8  1  0  0  0  0
 21 20  1  0  0  0  0
M  END
>  <FittedScore>
-38.47

$$$$
