A71EV2A-x5182a_lowest-energy
  FITTED

 39 40     0  0  0  0  0  0  0999 V2000
    9.7121   16.5943   19.1651 O    0  0  0  0  0  0  0  0  0  0  0  0
   10.2522   15.5650   19.5287 C    0  0  0  0  0  0  0  0  0  0  0  0
   10.9539   14.7960   18.6749 N    0  0  0  0  0  0  0  0  0  0  0  0
   10.2626   15.0819   20.9697 C    0  0  0  0  0  0  0  0  0  0  0  0
   11.2528   15.9194   21.8281 C    0  0  0  0  0  0  0  0  0  0  0  0
   11.2823   15.3790   23.2762 C    0  0  0  0  0  0  0  0  0  0  0  0
    9.8643   15.3122   23.8929 C    0  0  0  0  0  0  0  0  0  0  0  0
    8.8344   15.0671   21.5854 C    0  0  0  0  0  0  0  0  0  0  0  0
    8.8881   14.6226   22.9955 N    0  0  0  0  0  0  0  0  0  0  0  0
    7.3995   14.0845   23.6496 S    0  0  0  0  0  0  0  0  0  0  0  0
    6.8047   15.1815   24.3643 O    0  0  0  0  0  0  0  0  0  0  0  0
    6.6155   13.3425   22.6886 O    0  0  0  0  0  0  0  0  0  0  0  0
    8.0998   13.0335   24.7892 N    0  0  0  0  0  0  0  0  0  0  0  0
    8.2142   11.6930   24.5342 C    0  0  0  0  0  0  0  0  0  0  0  0
    7.3299   10.7833   25.1460 C    0  0  0  0  0  0  0  0  0  0  0  0
    6.0694   11.3894   26.2744 S    0  0  0  0  0  0  0  0  0  0  0  0
    5.5284   10.0095   27.3169 C    0  0  0  0  0  0  0  0  0  0  0  0
    9.2159   11.2157   23.6608 C    0  0  0  0  0  0  0  0  0  0  0  0
    9.3570    9.8928   23.3687 N    0  0  0  0  0  0  0  0  0  0  0  0
    8.4749    9.0169   23.9203 C    0  0  0  0  0  0  0  0  0  0  0  0
    7.4598    9.4230   24.8053 C    0  0  0  0  0  0  0  0  0  0  0  0
   11.4003   13.9440   19.0073 H    0  0  0  0  0  0  0  0  0  0  0  0
   10.9150   14.9787   17.6817 H    0  0  0  0  0  0  0  0  0  0  0  0
   10.6073   14.0393   20.9940 H    0  0  0  0  0  0  0  0  0  0  0  0
   12.2553   15.8668   21.3979 H    0  0  0  0  0  0  0  0  0  0  0  0
   10.9576   16.9765   21.8295 H    0  0  0  0  0  0  0  0  0  0  0  0
   11.7418   14.3868   23.2923 H    0  0  0  0  0  0  0  0  0  0  0  0
   11.9091   16.0275   23.8897 H    0  0  0  0  0  0  0  0  0  0  0  0
    9.9723   14.8283   24.8637 H    0  0  0  0  0  0  0  0  0  0  0  0
    9.5170   16.3272   24.1106 H    0  0  0  0  0  0  0  0  0  0  0  0
    8.2174   14.4082   20.9633 H    0  0  0  0  0  0  0  0  0  0  0  0
    8.3822   16.0649   21.5144 H    0  0  0  0  0  0  0  0  0  0  0  0
    7.6760   13.2601   25.6840 H    0  0  0  0  0  0  0  0  0  0  0  0
    4.9576    9.2976   26.7190 H    0  0  0  0  0  0  0  0  0  0  0  0
    4.8951   10.4006   28.1152 H    0  0  0  0  0  0  0  0  0  0  0  0
    6.3960    9.5166   27.7610 H    0  0  0  0  0  0  0  0  0  0  0  0
    9.9110   11.9120   23.1956 H    0  0  0  0  0  0  0  0  0  0  0  0
    8.5565    7.9632   23.6710 H    0  0  0  0  0  0  0  0  0  0  0  0
    6.7901    8.6688   25.2134 H    0  0  0  0  0  0  0  0  0  0  0  0
  7  9  1  0  0  0  0
  6  7  1  0  0  0  0
  5  6  1  0  0  0  0
  4  5  1  0  0  0  0
  2  4  1  0  0  0  0
  1  2  2  0  0  0  0
  3  2  1  0  0  0  0
 22  3  1  0  0  0  0
 23  3  1  0  0  0  0
 24  4  1  0  0  0  0
 25  5  1  0  0  0  0
 26  5  1  0  0  0  0
 27  6  1  0  0  0  0
 28  6  1  0  0  0  0
 29  7  1  0  0  0  0
 30  7  1  0  0  0  0
  8  4  1  0  0  0  0
 31  8  1  0  0  0  0
 32  8  1  0  0  0  0
 10  9  1  0  0  0  0
 11 10  2  0  0  0  0
 12 10  2  0  0  0  0
 13 10  1  0  0  0  0
 33 13  1  0  0  0  0
 14 13  1  0  0  0  0
 15 14  1  0  0  0  0
 21 15  2  0  0  0  0
 16 15  1  0  0  0  0
 17 16  1  0  0  0  0
 34 17  1  0  0  0  0
 35 17  1  0  0  0  0
 36 17  1  0  0  0  0
 18 14  2  0  0  0  0
 37 18  1  0  0  0  0
 19 18  1  0  0  0  0
 20 19  2  0  0  0  0
 38 20  1  0  0  0  0
 39 21  1  0  0  0  0
  9  8  1  0  0  0  0
 21 20  1  0  0  0  0
M  END
>  <FittedScore>
-36.25

$$$$
