A71EV2A-x4559a_lowest-energy
  FITTED

 43 45     0  0  0  0  0  0  0999 V2000
    9.9964   16.8273   19.1695 O    0  0  0  0  0  0  0  0  0  0  0  0
   10.4587   15.7678   19.5535 C    0  0  0  0  0  0  0  0  0  0  0  0
   10.7330   14.7773   18.6847 N    0  0  0  0  0  0  0  0  0  0  0  0
   10.4647   15.3311   21.0024 C    0  0  0  0  0  0  0  0  0  0  0  0
   11.4426   16.1767   21.8684 C    0  0  0  0  0  0  0  0  0  0  0  0
   11.3926   15.7085   23.3468 C    0  0  0  0  0  0  0  0  0  0  0  0
    9.9308   15.5657   23.8693 C    0  0  0  0  0  0  0  0  0  0  0  0
    9.0276   15.3365   21.5910 C    0  0  0  0  0  0  0  0  0  0  0  0
    9.0532   14.7526   22.9621 N    0  0  0  0  0  0  0  0  0  0  0  0
    8.5328   13.5108   23.2150 C    0  0  0  0  0  0  0  0  0  0  0  0
    7.5675   13.1124   22.5813 O    0  0  0  0  0  0  0  0  0  0  0  0
    9.3704   12.5594   24.0888 C    0  0  0  0  0  0  0  0  0  0  0  0
    8.6673   11.3081   24.3880 N    0  0  0  0  0  0  0  0  0  0  0  0
    7.5659   11.2314   25.1835 C    0  0  0  0  0  0  0  0  0  0  0  0
    6.8134   12.1958   25.8710 C    0  0  0  0  0  0  0  0  0  0  0  0
    5.7109   11.7562   26.6288 C    0  0  0  0  0  0  0  0  0  0  0  0
    9.0539   10.0912   23.9151 C    0  0  0  0  0  0  0  0  0  0  0  0
    8.1424    9.1779   24.4294 C    0  0  0  0  0  0  0  0  0  0  0  0
    7.2373    9.8919   25.2175 C    0  0  0  0  0  0  0  0  0  0  0  0
    6.1323    9.4532   25.9448 C    0  0  0  0  0  0  0  0  0  0  0  0
    5.3696   10.3835   26.6811 C    0  0  0  0  0  0  0  0  0  0  0  0
    4.2010    9.9062   27.5357 C    0  0  0  0  0  0  0  0  0  0  0  0
   10.8916   13.8137   19.0043 H    0  0  0  0  0  0  0  0  0  0  0  0
   10.7212   14.9783   17.6972 H    0  0  0  0  0  0  0  0  0  0  0  0
   10.8258   14.2937   21.0432 H    0  0  0  0  0  0  0  0  0  0  0  0
   12.4602   16.0681   21.4812 H    0  0  0  0  0  0  0  0  0  0  0  0
   11.1886   17.2383   21.8043 H    0  0  0  0  0  0  0  0  0  0  0  0
   11.9160   14.7520   23.4484 H    0  0  0  0  0  0  0  0  0  0  0  0
   11.9300   16.4292   23.9704 H    0  0  0  0  0  0  0  0  0  0  0  0
    9.9496   15.1855   24.8880 H    0  0  0  0  0  0  0  0  0  0  0  0
    9.4945   16.5641   23.9670 H    0  0  0  0  0  0  0  0  0  0  0  0
    8.3665   14.7944   20.9081 H    0  0  0  0  0  0  0  0  0  0  0  0
    8.6231   16.3522   21.6321 H    0  0  0  0  0  0  0  0  0  0  0  0
   10.3261   12.3771   23.5861 H    0  0  0  0  0  0  0  0  0  0  0  0
    9.6188   13.0097   25.0519 H    0  0  0  0  0  0  0  0  0  0  0  0
    7.0690   13.2520   25.8296 H    0  0  0  0  0  0  0  0  0  0  0  0
    5.1195   12.4867   27.1764 H    0  0  0  0  0  0  0  0  0  0  0  0
    9.8919    9.8890   23.2499 H    0  0  0  0  0  0  0  0  0  0  0  0
    8.1338    8.1066   24.2439 H    0  0  0  0  0  0  0  0  0  0  0  0
    5.8863    8.3930   25.9582 H    0  0  0  0  0  0  0  0  0  0  0  0
    4.1803    8.8175   27.6308 H    0  0  0  0  0  0  0  0  0  0  0  0
    3.2555   10.2247   27.0948 H    0  0  0  0  0  0  0  0  0  0  0  0
    4.2692   10.3162   28.5468 H    0  0  0  0  0  0  0  0  0  0  0  0
  9 10  1  0  0  0  0
  7  9  1  0  0  0  0
  6  7  1  0  0  0  0
  5  6  1  0  0  0  0
  4  5  1  0  0  0  0
  2  4  1  0  0  0  0
  1  2  2  0  0  0  0
  3  2  1  0  0  0  0
 23  3  1  0  0  0  0
 24  3  1  0  0  0  0
 25  4  1  0  0  0  0
 26  5  1  0  0  0  0
 27  5  1  0  0  0  0
 28  6  1  0  0  0  0
 29  6  1  0  0  0  0
 30  7  1  0  0  0  0
 31  7  1  0  0  0  0
  8  4  1  0  0  0  0
 32  8  1  0  0  0  0
 33  8  1  0  0  0  0
 11 10  2  0  0  0  0
 12 10  1  0  0  0  0
 34 12  1  0  0  0  0
 35 12  1  0  0  0  0
 13 12  1  0  0  0  0
 14 13  1  0  0  0  0
 19 14  2  0  0  0  0
 15 14  1  0  0  0  0
 36 15  1  0  0  0  0
 16 15  2  0  0  0  0
 37 16  1  0  0  0  0
 17 13  1  0  0  0  0
 38 17  1  0  0  0  0
 18 17  2  0  0  0  0
 39 18  1  0  0  0  0
 20 19  1  0  0  0  0
 40 20  1  0  0  0  0
 21 16  1  0  0  0  0
 22 21  1  0  0  0  0
 41 22  1  0  0  0  0
 42 22  1  0  0  0  0
 43 22  1  0  0  0  0
  9  8  1  0  0  0  0
 19 18  1  0  0  0  0
 21 20  2  0  0  0  0
M  END
>  <FittedScore>
-36.95

$$$$
