A71EV2A-x5727a_lowest-energy
  FITTED

 46 48     0  0  0  0  0  0  0999 V2000
    9.0809    8.4342   23.8778 C    0  0  0  0  0  0  0  0  0  0  0  0
    8.9561    9.9438   24.0240 C    0  0  0  0  0  0  0  0  0  0  0  0
    7.9875   10.5370   24.8542 C    0  0  0  0  0  0  0  0  0  0  0  0
    7.8021   11.9286   24.8389 C    0  0  0  0  0  0  0  0  0  0  0  0
    8.5898   12.7578   24.0135 C    0  0  0  0  0  0  0  0  0  0  0  0
    8.2839   14.2759   23.9777 C    0  0  0  0  0  0  0  0  0  0  0  0
    6.9323   14.6325   23.3189 C    0  0  0  0  0  0  0  0  0  0  0  0
    6.2449   13.8318   22.2734 N    0  0  0  0  0  0  0  0  0  0  0  0
    5.1022   14.7006   21.9122 C    0  0  0  0  0  0  0  0  0  0  0  0
    5.0995   15.8484   22.6823 C    0  0  0  0  0  0  0  0  0  0  0  0
    6.1867   15.7693   23.4929 N    0  0  0  0  0  0  0  0  0  0  0  0
    6.6113   16.9073   24.3295 C    0  0  0  0  0  0  0  0  0  0  0  0
    9.4338   15.0928   23.4304 N    0  0  0  0  0  0  0  0  0  0  0  0
    9.3959   15.3143   21.9456 C    0  0  0  0  0  0  0  0  0  0  0  0
   10.7736   15.4522   21.2554 C    0  0  0  0  0  0  0  0  0  0  0  0
   10.6100   15.8661   19.7886 C    0  0  0  0  0  0  0  0  0  0  0  0
   10.8162   14.8980   18.8753 N    0  0  0  0  0  0  0  0  0  0  0  0
   10.0979   16.9111   19.4357 O    0  0  0  0  0  0  0  0  0  0  0  0
   11.6680   16.4273   22.0621 C    0  0  0  0  0  0  0  0  0  0  0  0
   11.8007   15.9475   23.5357 C    0  0  0  0  0  0  0  0  0  0  0  0
   10.5016   15.4733   24.2179 C    0  0  0  0  0  0  0  0  0  0  0  0
   10.5120   15.2915   25.4269 O    0  0  0  0  0  0  0  0  0  0  0  0
    9.6130   12.1505   23.2474 C    0  0  0  0  0  0  0  0  0  0  0  0
    9.7915   10.7655   23.2579 C    0  0  0  0  0  0  0  0  0  0  0  0
   10.0057    8.0762   24.3455 H    0  0  0  0  0  0  0  0  0  0  0  0
    9.1050    8.1490   22.8250 H    0  0  0  0  0  0  0  0  0  0  0  0
    8.2487    7.9058   24.3506 H    0  0  0  0  0  0  0  0  0  0  0  0
    7.3476    9.9226   25.4852 H    0  0  0  0  0  0  0  0  0  0  0  0
    7.0232   12.3611   25.4636 H    0  0  0  0  0  0  0  0  0  0  0  0
    8.1430   14.5613   25.0259 H    0  0  0  0  0  0  0  0  0  0  0  0
    4.3913   14.4422   21.1334 H    0  0  0  0  0  0  0  0  0  0  0  0
    4.3807   16.6640   22.6407 H    0  0  0  0  0  0  0  0  0  0  0  0
    7.5775   17.3050   24.0066 H    0  0  0  0  0  0  0  0  0  0  0  0
    6.7244   16.6129   25.3764 H    0  0  0  0  0  0  0  0  0  0  0  0
    5.9047   17.7425   24.3121 H    0  0  0  0  0  0  0  0  0  0  0  0
    8.7991   16.2125   21.7661 H    0  0  0  0  0  0  0  0  0  0  0  0
    8.8891   14.4928   21.4362 H    0  0  0  0  0  0  0  0  0  0  0  0
   11.2614   14.4709   21.2828 H    0  0  0  0  0  0  0  0  0  0  0  0
   10.6679   15.1184   17.8952 H    0  0  0  0  0  0  0  0  0  0  0  0
   10.9932   13.9307   19.1496 H    0  0  0  0  0  0  0  0  0  0  0  0
   11.2386   17.4346   22.0475 H    0  0  0  0  0  0  0  0  0  0  0  0
   12.6577   16.4951   21.6026 H    0  0  0  0  0  0  0  0  0  0  0  0
   12.2366   16.7642   24.1217 H    0  0  0  0  0  0  0  0  0  0  0  0
   12.5227   15.1251   23.5734 H    0  0  0  0  0  0  0  0  0  0  0  0
   10.2802   12.7230   22.6187 H    0  0  0  0  0  0  0  0  0  0  0  0
   10.5764   10.3252   22.6462 H    0  0  0  0  0  0  0  0  0  0  0  0
  6 13  1  0  0  0  0
  5  6  1  0  0  0  0
  4  5  2  0  0  0  0
  3  4  1  0  0  0  0
  2  3  2  0  0  0  0
  1  2  1  0  0  0  0
 25  1  1  0  0  0  0
 26  1  1  0  0  0  0
 27  1  1  0  0  0  0
 28  3  1  0  0  0  0
 29  4  1  0  0  0  0
 23  5  1  0  0  0  0
  7  6  1  0  0  0  0
 30  6  1  0  0  0  0
  8  7  2  0  0  0  0
  9  8  1  0  0  0  0
 10  9  2  0  0  0  0
 31  9  1  0  0  0  0
 11 10  1  0  0  0  0
 32 10  1  0  0  0  0
 12 11  1  0  0  0  0
 33 12  1  0  0  0  0
 34 12  1  0  0  0  0
 35 12  1  0  0  0  0
 14 13  1  0  0  0  0
 15 14  1  0  0  0  0
 36 14  1  0  0  0  0
 37 14  1  0  0  0  0
 16 15  1  0  0  0  0
 19 15  1  0  0  0  0
 38 15  1  0  0  0  0
 17 16  1  0  0  0  0
 18 16  2  0  0  0  0
 39 17  1  0  0  0  0
 40 17  1  0  0  0  0
 20 19  1  0  0  0  0
 41 19  1  0  0  0  0
 42 19  1  0  0  0  0
 21 20  1  0  0  0  0
 43 20  1  0  0  0  0
 44 20  1  0  0  0  0
 22 21  2  0  0  0  0
 24 23  2  0  0  0  0
 45 23  1  0  0  0  0
 46 24  1  0  0  0  0
 11  7  1  0  0  0  0
 21 13  1  0  0  0  0
 24  2  1  0  0  0  0
M  END
>  <FittedScore>
-34.83

$$$$
