A71EV2A-x5727a_best-RMSD
  FITTED

 46 48     0  0  0  0  0  0  0999 V2000
    9.1122    8.2855   23.7666 C    0  0  0  0  0  0  0  0  0  0  0  0
    8.9845    9.7921   23.9302 C    0  0  0  0  0  0  0  0  0  0  0  0
    8.0661   10.3763   24.8246 C    0  0  0  0  0  0  0  0  0  0  0  0
    7.8737   11.7686   24.8313 C    0  0  0  0  0  0  0  0  0  0  0  0
    8.5912   12.6075   23.9523 C    0  0  0  0  0  0  0  0  0  0  0  0
    8.2853   14.1269   23.9532 C    0  0  0  0  0  0  0  0  0  0  0  0
    6.9088   14.5092   23.3725 C    0  0  0  0  0  0  0  0  0  0  0  0
    6.1484   13.7293   22.3634 N    0  0  0  0  0  0  0  0  0  0  0  0
    4.9516   14.5729   22.1539 C    0  0  0  0  0  0  0  0  0  0  0  0
    5.0164   15.7144   22.9347 C    0  0  0  0  0  0  0  0  0  0  0  0
    6.1757   15.6384   23.6355 N    0  0  0  0  0  0  0  0  0  0  0  0
    6.6147   16.7087   24.5489 C    0  0  0  0  0  0  0  0  0  0  0  0
    9.4197   14.9649   23.4064 N    0  0  0  0  0  0  0  0  0  0  0  0
    9.3493   15.2249   21.9309 C    0  0  0  0  0  0  0  0  0  0  0  0
   10.7293   15.3616   21.2301 C    0  0  0  0  0  0  0  0  0  0  0  0
   10.5786   15.8088   19.7717 C    0  0  0  0  0  0  0  0  0  0  0  0
   10.8854   14.8726   18.8454 N    0  0  0  0  0  0  0  0  0  0  0  0
   10.0237   16.8393   19.4291 O    0  0  0  0  0  0  0  0  0  0  0  0
   11.6375   16.3160   22.0428 C    0  0  0  0  0  0  0  0  0  0  0  0
   11.7968   15.7883   23.4935 C    0  0  0  0  0  0  0  0  0  0  0  0
   10.4939   15.3436   24.1842 C    0  0  0  0  0  0  0  0  0  0  0  0
   10.5066   15.1835   25.3959 O    0  0  0  0  0  0  0  0  0  0  0  0
    9.5566   12.0085   23.1121 C    0  0  0  0  0  0  0  0  0  0  0  0
    9.7490   10.6250   23.1028 C    0  0  0  0  0  0  0  0  0  0  0  0
   10.1201    7.9521   24.0269 H    0  0  0  0  0  0  0  0  0  0  0  0
    8.9159    7.9910   22.7317 H    0  0  0  0  0  0  0  0  0  0  0  0
    8.4065    7.7406   24.4014 H    0  0  0  0  0  0  0  0  0  0  0  0
    7.4766    9.7552   25.4951 H    0  0  0  0  0  0  0  0  0  0  0  0
    7.1425   12.1915   25.5153 H    0  0  0  0  0  0  0  0  0  0  0  0
    8.1808   14.3729   25.0144 H    0  0  0  0  0  0  0  0  0  0  0  0
    4.1468   14.2937   21.4758 H    0  0  0  0  0  0  0  0  0  0  0  0
    4.2827   16.5145   22.9850 H    0  0  0  0  0  0  0  0  0  0  0  0
    5.9395   17.5688   24.5505 H    0  0  0  0  0  0  0  0  0  0  0  0
    7.6025   17.0902   24.2779 H    0  0  0  0  0  0  0  0  0  0  0  0
    6.6711   16.3524   25.5823 H    0  0  0  0  0  0  0  0  0  0  0  0
    8.7633   16.1374   21.7789 H    0  0  0  0  0  0  0  0  0  0  0  0
    8.8115   14.4296   21.4037 H    0  0  0  0  0  0  0  0  0  0  0  0
   11.2026   14.3710   21.2576 H    0  0  0  0  0  0  0  0  0  0  0  0
   10.7432   15.0809   17.8648 H    0  0  0  0  0  0  0  0  0  0  0  0
   11.0908   13.9096   19.1154 H    0  0  0  0  0  0  0  0  0  0  0  0
   11.2028   17.3211   22.0659 H    0  0  0  0  0  0  0  0  0  0  0  0
   12.6185   16.4016   21.5653 H    0  0  0  0  0  0  0  0  0  0  0  0
   12.2752   16.5703   24.0914 H    0  0  0  0  0  0  0  0  0  0  0  0
   12.4871   14.9416   23.4810 H    0  0  0  0  0  0  0  0  0  0  0  0
   10.1674   12.5899   22.4334 H    0  0  0  0  0  0  0  0  0  0  0  0
   10.4840   10.1923   22.4239 H    0  0  0  0  0  0  0  0  0  0  0  0
  6 13  1  0  0  0  0
  5  6  1  0  0  0  0
  4  5  2  0  0  0  0
  3  4  1  0  0  0  0
  2  3  2  0  0  0  0
  1  2  1  0  0  0  0
 25  1  1  0  0  0  0
 26  1  1  0  0  0  0
 27  1  1  0  0  0  0
 28  3  1  0  0  0  0
 29  4  1  0  0  0  0
 23  5  1  0  0  0  0
  7  6  1  0  0  0  0
 30  6  1  0  0  0  0
  8  7  2  0  0  0  0
  9  8  1  0  0  0  0
 10  9  2  0  0  0  0
 31  9  1  0  0  0  0
 11 10  1  0  0  0  0
 32 10  1  0  0  0  0
 12 11  1  0  0  0  0
 33 12  1  0  0  0  0
 34 12  1  0  0  0  0
 35 12  1  0  0  0  0
 14 13  1  0  0  0  0
 15 14  1  0  0  0  0
 36 14  1  0  0  0  0
 37 14  1  0  0  0  0
 16 15  1  0  0  0  0
 19 15  1  0  0  0  0
 38 15  1  0  0  0  0
 17 16  1  0  0  0  0
 18 16  2  0  0  0  0
 39 17  1  0  0  0  0
 40 17  1  0  0  0  0
 20 19  1  0  0  0  0
 41 19  1  0  0  0  0
 42 19  1  0  0  0  0
 21 20  1  0  0  0  0
 43 20  1  0  0  0  0
 44 20  1  0  0  0  0
 22 21  2  0  0  0  0
 24 23  2  0  0  0  0
 45 23  1  0  0  0  0
 46 24  1  0  0  0  0
 11  7  1  0  0  0  0
 21 13  1  0  0  0  0
 24  2  1  0  0  0  0
M  END
>  <FittedScore>
-34.69

$$$$
