A71EV2A-x6739a_best-RMSD
  FITTED

 60 63     0  0  0  0  0  0  0999 V2000
    9.5363    8.7943   23.6484 C    0  0  0  0  0  0  0  0  0  0  0  0
    9.4412   10.4562   24.3786 S    0  0  0  0  0  0  0  0  0  0  0  0
    7.7584   10.7329   24.9571 C    0  0  0  0  0  0  0  0  0  0  0  0
    6.9047    9.6468   25.1985 C    0  0  0  0  0  0  0  0  0  0  0  0
    5.6038    9.8395   25.6707 C    0  0  0  0  0  0  0  0  0  0  0  0
    5.1013   11.1257   25.9630 C    0  0  0  0  0  0  0  0  0  0  0  0
    3.7019   11.4268   26.5210 C    0  0  0  0  0  0  0  0  0  0  0  0
    3.2408   12.5460   26.3548 O    0  0  0  0  0  0  0  0  0  0  0  0
    3.0037   10.5159   27.3001 N    0  0  0  0  0  0  0  0  0  0  0  0
    1.6622   10.8269   27.8879 C    0  0  0  0  0  0  0  0  0  0  0  0
    1.3764    9.7083   28.8572 C    0  0  0  0  0  0  0  0  0  0  0  0
    0.2595    9.5562   29.6211 N    0  0  0  0  0  0  0  0  0  0  0  0
    0.1941    8.4641   30.4368 C    0  0  0  0  0  0  0  0  0  0  0  0
    1.2291    7.5108   30.5069 C    0  0  0  0  0  0  0  0  0  0  0  0
    2.3816    7.6812   29.7097 C    0  0  0  0  0  0  0  0  0  0  0  0
    3.5173    6.6743   29.7436 C    0  0  0  0  0  0  0  0  0  0  0  0
    2.4274    8.8183   28.8781 C    0  0  0  0  0  0  0  0  0  0  0  0
    3.4808    9.2226   27.8853 C    0  0  0  0  0  0  0  0  0  0  0  0
    5.9550   12.2145   25.6693 C    0  0  0  0  0  0  0  0  0  0  0  0
    7.2692   12.0407   25.1897 C    0  0  0  0  0  0  0  0  0  0  0  0
    8.1066   13.2991   24.9024 C    0  0  0  0  0  0  0  0  0  0  0  0
    8.1835   13.6850   23.4108 C    0  0  0  0  0  0  0  0  0  0  0  0
    7.4626   13.1083   22.6113 O    0  0  0  0  0  0  0  0  0  0  0  0
    9.0171   14.7143   23.0058 N    0  0  0  0  0  0  0  0  0  0  0  0
    9.9361   15.5264   23.8788 C    0  0  0  0  0  0  0  0  0  0  0  0
   11.3957   15.6222   23.3447 C    0  0  0  0  0  0  0  0  0  0  0  0
   11.4434   16.1374   21.8859 C    0  0  0  0  0  0  0  0  0  0  0  0
   10.4801   15.3077   20.9938 C    0  0  0  0  0  0  0  0  0  0  0  0
   10.4836   15.8454   19.5688 C    0  0  0  0  0  0  0  0  0  0  0  0
   10.9384   14.9806   18.6463 N    0  0  0  0  0  0  0  0  0  0  0  0
   10.0650   16.9434   19.2520 O    0  0  0  0  0  0  0  0  0  0  0  0
    9.0427   15.2504   21.5993 C    0  0  0  0  0  0  0  0  0  0  0  0
    9.4218    8.0309   24.4178 H    0  0  0  0  0  0  0  0  0  0  0  0
   10.5185    8.6693   23.1914 H    0  0  0  0  0  0  0  0  0  0  0  0
    8.7670    8.6782   22.8821 H    0  0  0  0  0  0  0  0  0  0  0  0
    7.2314    8.6297   25.0237 H    0  0  0  0  0  0  0  0  0  0  0  0
    4.9902    8.9570   25.7413 H    0  0  0  0  0  0  0  0  0  0  0  0
    0.9090   10.8643   27.0990 H    0  0  0  0  0  0  0  0  0  0  0  0
    1.6752   11.7841   28.4155 H    0  0  0  0  0  0  0  0  0  0  0  0
   -0.6900    8.3271   31.0559 H    0  0  0  0  0  0  0  0  0  0  0  0
    1.1282    6.6557   31.1701 H    0  0  0  0  0  0  0  0  0  0  0  0
    3.3738    5.9181   30.5207 H    0  0  0  0  0  0  0  0  0  0  0  0
    4.4687    7.1807   29.9294 H    0  0  0  0  0  0  0  0  0  0  0  0
    3.5932    6.1483   28.7874 H    0  0  0  0  0  0  0  0  0  0  0  0
    3.5069    8.4383   27.1308 H    0  0  0  0  0  0  0  0  0  0  0  0
    4.4557    9.3346   28.3659 H    0  0  0  0  0  0  0  0  0  0  0  0
    5.6083   13.2303   25.8345 H    0  0  0  0  0  0  0  0  0  0  0  0
    9.1032   13.1347   25.3167 H    0  0  0  0  0  0  0  0  0  0  0  0
    7.7075   14.1514   25.4627 H    0  0  0  0  0  0  0  0  0  0  0  0
   10.0090   15.1558   24.8978 H    0  0  0  0  0  0  0  0  0  0  0  0
    9.5242   16.5363   23.9727 H    0  0  0  0  0  0  0  0  0  0  0  0
   11.8703   14.6356   23.3966 H    0  0  0  0  0  0  0  0  0  0  0  0
   11.9815   16.2881   23.9844 H    0  0  0  0  0  0  0  0  0  0  0  0
   12.4628   16.0467   21.5030 H    0  0  0  0  0  0  0  0  0  0  0  0
   11.1868   17.2029   21.8560 H    0  0  0  0  0  0  0  0  0  0  0  0
   10.8532   14.2714   21.0019 H    0  0  0  0  0  0  0  0  0  0  0  0
   11.1775   14.0282   18.9170 H    0  0  0  0  0  0  0  0  0  0  0  0
   10.9576   15.2473   17.6734 H    0  0  0  0  0  0  0  0  0  0  0  0
    8.4170   14.6726   20.9139 H    0  0  0  0  0  0  0  0  0  0  0  0
    8.6051   16.2547   21.6046 H    0  0  0  0  0  0  0  0  0  0  0  0
 19 20  2  0  0  0  0
  6 19  1  0  0  0  0
  5  6  2  0  0  0  0
  4  5  1  0  0  0  0
  3  4  2  0  0  0  0
  2  3  1  0  0  0  0
  1  2  1  0  0  0  0
 33  1  1  0  0  0  0
 34  1  1  0  0  0  0
 35  1  1  0  0  0  0
 36  4  1  0  0  0  0
 37  5  1  0  0  0  0
  7  6  1  0  0  0  0
  8  7  2  0  0  0  0
  9  7  1  0  0  0  0
 10  9  1  0  0  0  0
 11 10  1  0  0  0  0
 38 10  1  0  0  0  0
 39 10  1  0  0  0  0
 12 11  2  0  0  0  0
 13 12  1  0  0  0  0
 14 13  2  0  0  0  0
 40 13  1  0  0  0  0
 15 14  1  0  0  0  0
 41 14  1  0  0  0  0
 16 15  1  0  0  0  0
 17 15  2  0  0  0  0
 42 16  1  0  0  0  0
 43 16  1  0  0  0  0
 44 16  1  0  0  0  0
 18 17  1  0  0  0  0
 45 18  1  0  0  0  0
 46 18  1  0  0  0  0
 47 19  1  0  0  0  0
 21 20  1  0  0  0  0
 22 21  1  0  0  0  0
 48 21  1  0  0  0  0
 49 21  1  0  0  0  0
 23 22  2  0  0  0  0
 24 22  1  0  0  0  0
 25 24  1  0  0  0  0
 26 25  1  0  0  0  0
 50 25  1  0  0  0  0
 51 25  1  0  0  0  0
 27 26  1  0  0  0  0
 52 26  1  0  0  0  0
 53 26  1  0  0  0  0
 28 27  1  0  0  0  0
 54 27  1  0  0  0  0
 55 27  1  0  0  0  0
 29 28  1  0  0  0  0
 32 28  1  0  0  0  0
 56 28  1  0  0  0  0
 30 29  1  0  0  0  0
 31 29  2  0  0  0  0
 57 30  1  0  0  0  0
 58 30  1  0  0  0  0
 59 32  1  0  0  0  0
 60 32  1  0  0  0  0
 17 11  1  0  0  0  0
 18  9  1  0  0  0  0
 20  3  1  0  0  0  0
 32 24  1  0  0  0  0
M  END
>  <FittedScore>
-39.70

$$$$
