A71EV2A-x7021a_lowest-energy
  FITTED

 51 54     0  0  0  0  0  0  0999 V2000
    9.4304    8.9033   23.1616 C    0  0  0  0  0  0  0  0  0  0  0  0
    9.1840   10.5124   23.8206 S    0  0  0  0  0  0  0  0  0  0  0  0
    7.7177   10.6542   24.7920 C    0  0  0  0  0  0  0  0  0  0  0  0
    7.0886    9.5577   25.3567 C    0  0  0  0  0  0  0  0  0  0  0  0
    5.9187    9.7179   26.1099 C    0  0  0  0  0  0  0  0  0  0  0  0
    5.3244   10.9766   26.2782 C    0  0  0  0  0  0  0  0  0  0  0  0
    4.0064   11.1917   26.9432 C    0  0  0  0  0  0  0  0  0  0  0  0
    3.7235   10.4184   27.9934 C    0  0  0  0  0  0  0  0  0  0  0  0
    2.5766   10.6919   28.9543 C    0  0  0  0  0  0  0  0  0  0  0  0
    1.7618   11.7807   28.5124 O    0  0  0  0  0  0  0  0  0  0  0  0
    1.6402   11.9149   27.0804 C    0  0  0  0  0  0  0  0  0  0  0  0
    2.9976   12.2245   26.4244 C    0  0  0  0  0  0  0  0  0  0  0  0
    6.0050   12.0604   25.7791 C    0  0  0  0  0  0  0  0  0  0  0  0
    7.1830   11.9103   25.0352 C    0  0  0  0  0  0  0  0  0  0  0  0
    7.7970   13.0548   24.5769 O    0  0  0  0  0  0  0  0  0  0  0  0
    7.6452   13.5842   23.3704 C    0  0  0  0  0  0  0  0  0  0  0  0
    6.7892   13.3031   22.5536 O    0  0  0  0  0  0  0  0  0  0  0  0
    8.6448   14.4408   23.0289 N    0  0  0  0  0  0  0  0  0  0  0  0
    8.7288   15.0211   21.6806 C    0  0  0  0  0  0  0  0  0  0  0  0
   10.1330   15.2505   21.0956 C    0  0  0  0  0  0  0  0  0  0  0  0
   10.1587   16.3318   19.9116 C    0  0  0  0  0  0  0  0  0  0  0  0
   10.8991   15.8972   18.7878 N    0  0  0  0  0  0  0  0  0  0  0  0
    9.6172   17.3125   19.9792 O    0  0  0  0  0  0  0  0  0  0  0  0
   11.2707   15.5239   22.1371 C    0  0  0  0  0  0  0  0  0  0  0  0
   11.1441   14.9011   23.5649 C    0  0  0  0  0  0  0  0  0  0  0  0
   10.6751   13.5647   23.9300 C    0  0  0  0  0  0  0  0  0  0  0  0
    9.7128   14.6981   24.0198 C    0  0  0  0  0  0  0  0  0  0  0  0
    8.4963    8.5954   22.6916 H    0  0  0  0  0  0  0  0  0  0  0  0
    9.7112    8.2707   23.9929 H    0  0  0  0  0  0  0  0  0  0  0  0
   10.2298    8.9241   22.4298 H    0  0  0  0  0  0  0  0  0  0  0  0
    7.4687    8.5578   25.1966 H    0  0  0  0  0  0  0  0  0  0  0  0
    5.4594    8.8411   26.5448 H    0  0  0  0  0  0  0  0  0  0  0  0
    4.3508    9.5791   28.2547 H    0  0  0  0  0  0  0  0  0  0  0  0
    3.0022   10.9601   29.9253 H    0  0  0  0  0  0  0  0  0  0  0  0
    1.9062    9.8399   29.0463 H    0  0  0  0  0  0  0  0  0  0  0  0
    1.0937   12.8480   26.9772 H    0  0  0  0  0  0  0  0  0  0  0  0
    1.0309   11.1366   26.6142 H    0  0  0  0  0  0  0  0  0  0  0  0
    3.3485   13.2366   26.6889 H    0  0  0  0  0  0  0  0  0  0  0  0
    2.8176   12.2807   25.3470 H    0  0  0  0  0  0  0  0  0  0  0  0
    5.5680   13.0090   26.0026 H    0  0  0  0  0  0  0  0  0  0  0  0
    8.2894   15.9750   21.9447 H    0  0  0  0  0  0  0  0  0  0  0  0
    8.1351   14.5018   20.9026 H    0  0  0  0  0  0  0  0  0  0  0  0
   10.4246   14.3417   20.5296 H    0  0  0  0  0  0  0  0  0  0  0  0
   10.8354   16.4835   17.9537 H    0  0  0  0  0  0  0  0  0  0  0  0
   11.2931   14.9932   18.6841 H    0  0  0  0  0  0  0  0  0  0  0  0
   11.4928   16.5716   22.2426 H    0  0  0  0  0  0  0  0  0  0  0  0
   12.1465   15.1053   21.6958 H    0  0  0  0  0  0  0  0  0  0  0  0
   12.0647   14.9728   24.1323 H    0  0  0  0  0  0  0  0  0  0  0  0
   11.2532   13.1230   24.7222 H    0  0  0  0  0  0  0  0  0  0  0  0
   10.4166   12.8285   23.2009 H    0  0  0  0  0  0  0  0  0  0  0  0
    9.1824   14.7521   24.9786 H    0  0  0  0  0  0  0  0  0  0  0  0
 14 15  1  0  0  0  0
 13 14  2  0  0  0  0
  6 13  1  0  0  0  0
  5  6  2  0  0  0  0
  4  5  1  0  0  0  0
  3  4  2  0  0  0  0
  2  3  1  0  0  0  0
  1  2  1  0  0  0  0
 28  1  1  0  0  0  0
 29  1  1  0  0  0  0
 30  1  1  0  0  0  0
 31  4  1  0  0  0  0
 32  5  1  0  0  0  0
  7  6  1  0  0  0  0
  8  7  2  0  0  0  0
  9  8  1  0  0  0  0
 33  8  1  0  0  0  0
 10  9  1  0  0  0  0
 34  9  1  0  0  0  0
 35  9  1  0  0  0  0
 11 10  1  0  0  0  0
 12 11  1  0  0  0  0
 36 11  1  0  0  0  0
 37 11  1  0  0  0  0
 38 12  1  0  0  0  0
 39 12  1  0  0  0  0
 40 13  1  0  0  0  0
 16 15  1  0  0  0  0
 17 16  2  0  0  0  0
 18 16  1  0  0  0  0
 19 18  1  0  0  0  0
 20 19  1  0  0  0  0
 41 19  1  0  0  0  0
 42 19  1  0  0  0  0
 21 20  1  0  0  0  0
 24 20  1  0  0  0  0
 43 20  1  0  0  0  0
 22 21  1  0  0  0  0
 23 21  2  0  0  0  0
 44 22  1  0  0  0  0
 45 22  1  0  0  0  0
 46 24  1  0  0  0  0
 47 24  1  0  0  0  0
 25 24  1  0  0  0  0
 26 25  1  0  0  0  0
 48 25  1  0  0  0  0
 49 26  1  0  0  0  0
 50 26  1  0  0  0  0
 27 26  1  0  0  0  0
 51 27  1  0  0  0  0
 12  7  1  0  0  0  0
 14  3  1  0  0  0  0
 27 18  1  0  0  0  0
 27 25  1  0  0  0  0
M  END
>  <FittedScore>
-28.13

$$$$
