A71EV2A-x7021a_best-RMSD
  FITTED

 51 54     0  0  0  0  0  0  0999 V2000
    9.5474    8.9236   23.3042 C    0  0  0  0  0  0  0  0  0  0  0  0
    9.2132   10.7092   23.4792 S    0  0  0  0  0  0  0  0  0  0  0  0
    7.8612   10.8521   24.6519 C    0  0  0  0  0  0  0  0  0  0  0  0
    7.3708    9.6961   25.2580 C    0  0  0  0  0  0  0  0  0  0  0  0
    6.2697    9.7218   26.1035 C    0  0  0  0  0  0  0  0  0  0  0  0
    5.5953   10.9205   26.3909 C    0  0  0  0  0  0  0  0  0  0  0  0
    4.3926   10.9553   27.3021 C    0  0  0  0  0  0  0  0  0  0  0  0
    4.1191    9.8775   28.0423 C    0  0  0  0  0  0  0  0  0  0  0  0
    2.8614    9.7793   28.8846 C    0  0  0  0  0  0  0  0  0  0  0  0
    1.8035   10.5225   28.2222 O    0  0  0  0  0  0  0  0  0  0  0  0
    2.0758   11.9409   28.0392 C    0  0  0  0  0  0  0  0  0  0  0  0
    3.4922   12.2026   27.4036 C    0  0  0  0  0  0  0  0  0  0  0  0
    6.0913   12.0987   25.8123 C    0  0  0  0  0  0  0  0  0  0  0  0
    7.2204   12.0710   24.9893 C    0  0  0  0  0  0  0  0  0  0  0  0
    7.7433   13.2827   24.5846 O    0  0  0  0  0  0  0  0  0  0  0  0
    7.6671   13.8309   23.3441 C    0  0  0  0  0  0  0  0  0  0  0  0
    6.8978   13.4077   22.4892 O    0  0  0  0  0  0  0  0  0  0  0  0
    8.6313   14.7703   23.0989 N    0  0  0  0  0  0  0  0  0  0  0  0
    8.8487   15.4362   21.8182 C    0  0  0  0  0  0  0  0  0  0  0  0
   10.1680   14.9276   21.1723 C    0  0  0  0  0  0  0  0  0  0  0  0
   10.3357   15.5806   19.7694 C    0  0  0  0  0  0  0  0  0  0  0  0
   10.9330   14.8435   18.7999 N    0  0  0  0  0  0  0  0  0  0  0  0
   10.0456   16.7076   19.4973 O    0  0  0  0  0  0  0  0  0  0  0  0
   11.4541   15.1039   22.0856 C    0  0  0  0  0  0  0  0  0  0  0  0
   11.1750   15.0693   23.6049 C    0  0  0  0  0  0  0  0  0  0  0  0
   10.7872   13.8716   24.4378 C    0  0  0  0  0  0  0  0  0  0  0  0
    9.7683   14.9131   24.0740 C    0  0  0  0  0  0  0  0  0  0  0  0
    8.6218    8.4378   22.9742 H    0  0  0  0  0  0  0  0  0  0  0  0
    9.9102    8.5255   24.2568 H    0  0  0  0  0  0  0  0  0  0  0  0
   10.3153    8.7324   22.5634 H    0  0  0  0  0  0  0  0  0  0  0  0
    7.8681    8.7524   25.1532 H    0  0  0  0  0  0  0  0  0  0  0  0
    5.9892    8.7789   26.5560 H    0  0  0  0  0  0  0  0  0  0  0  0
    4.7642    9.0036   28.0357 H    0  0  0  0  0  0  0  0  0  0  0  0
    3.0490   10.2015   29.8768 H    0  0  0  0  0  0  0  0  0  0  0  0
    2.5470    8.7392   28.9857 H    0  0  0  0  0  0  0  0  0  0  0  0
    1.9831   12.4208   29.0225 H    0  0  0  0  0  0  0  0  0  0  0  0
    1.2897   12.3491   27.4038 H    0  0  0  0  0  0  0  0  0  0  0  0
    3.9954   12.9315   28.0435 H    0  0  0  0  0  0  0  0  0  0  0  0
    3.3807   12.6860   26.4315 H    0  0  0  0  0  0  0  0  0  0  0  0
    5.6075   13.0506   25.9949 H    0  0  0  0  0  0  0  0  0  0  0  0
    8.9002   16.5143   21.9900 H    0  0  0  0  0  0  0  0  0  0  0  0
    8.0025   15.2720   21.1484 H    0  0  0  0  0  0  0  0  0  0  0  0
   10.0506   13.8412   21.0532 H    0  0  0  0  0  0  0  0  0  0  0  0
   11.0600   15.1620   17.8456 H    0  0  0  0  0  0  0  0  0  0  0  0
   11.1177   13.8822   18.9636 H    0  0  0  0  0  0  0  0  0  0  0  0
   11.9229   16.0614   21.8714 H    0  0  0  0  0  0  0  0  0  0  0  0
   12.1916   14.3361   21.8394 H    0  0  0  0  0  0  0  0  0  0  0  0
   11.7713   15.7897   24.1480 H    0  0  0  0  0  0  0  0  0  0  0  0
   11.0306   13.8018   25.4956 H    0  0  0  0  0  0  0  0  0  0  0  0
   10.7424   12.9137   23.9594 H    0  0  0  0  0  0  0  0  0  0  0  0
    9.3305   15.6642   24.7176 H    0  0  0  0  0  0  0  0  0  0  0  0
 14 15  1  0  0  0  0
 13 14  2  0  0  0  0
  6 13  1  0  0  0  0
  5  6  2  0  0  0  0
  4  5  1  0  0  0  0
  3  4  2  0  0  0  0
  2  3  1  0  0  0  0
  1  2  1  0  0  0  0
 28  1  1  0  0  0  0
 29  1  1  0  0  0  0
 30  1  1  0  0  0  0
 31  4  1  0  0  0  0
 32  5  1  0  0  0  0
  7  6  1  0  0  0  0
  8  7  2  0  0  0  0
  9  8  1  0  0  0  0
 33  8  1  0  0  0  0
 10  9  1  0  0  0  0
 34  9  1  0  0  0  0
 35  9  1  0  0  0  0
 11 10  1  0  0  0  0
 12 11  1  0  0  0  0
 36 11  1  0  0  0  0
 37 11  1  0  0  0  0
 38 12  1  0  0  0  0
 39 12  1  0  0  0  0
 40 13  1  0  0  0  0
 16 15  1  0  0  0  0
 17 16  2  0  0  0  0
 18 16  1  0  0  0  0
 19 18  1  0  0  0  0
 20 19  1  0  0  0  0
 41 19  1  0  0  0  0
 42 19  1  0  0  0  0
 21 20  1  0  0  0  0
 24 20  1  0  0  0  0
 43 20  1  0  0  0  0
 22 21  1  0  0  0  0
 23 21  2  0  0  0  0
 44 22  1  0  0  0  0
 45 22  1  0  0  0  0
 46 24  1  0  0  0  0
 47 24  1  0  0  0  0
 25 24  1  0  0  0  0
 26 25  1  0  0  0  0
 48 25  1  0  0  0  0
 49 26  1  0  0  0  0
 50 26  1  0  0  0  0
 27 26  1  0  0  0  0
 51 27  1  0  0  0  0
 12  7  1  0  0  0  0
 14  3  1  0  0  0  0
 27 18  1  0  0  0  0
 27 25  1  0  0  0  0
M  END
>  <FittedScore>
-31.65

$$$$
