A71EV2A-x2629a_best-RMSD
  FITTED

 31 32     0  0  0  0  0  0  0999 V2000
   10.4257   14.9483   23.1613 O    0  0  0  0  0  0  0  0  0  0  0  0
   10.9775   13.9563   22.7362 C    0  0  0  0  0  0  0  0  0  0  0  0
   10.6118   12.6870   23.0486 N    0  0  0  0  0  0  0  0  0  0  0  0
    9.6434   12.1855   23.9999 C    0  0  0  0  0  0  0  0  0  0  0  0
    9.0779   12.9837   25.0213 C    0  0  0  0  0  0  0  0  0  0  0  0
    8.0864   12.4766   25.8631 C    0  0  0  0  0  0  0  0  0  0  0  0
    7.6577   11.1503   25.7257 C    0  0  0  0  0  0  0  0  0  0  0  0
    8.2329   10.3350   24.7502 C    0  0  0  0  0  0  0  0  0  0  0  0
    9.2368   10.8357   23.8918 C    0  0  0  0  0  0  0  0  0  0  0  0
    9.8350   10.0411   22.9151 O    0  0  0  0  0  0  0  0  0  0  0  0
    9.7462    8.6068   22.8305 C    0  0  0  0  0  0  0  0  0  0  0  0
   11.7553   13.9954   21.6327 N    0  0  0  0  0  0  0  0  0  0  0  0
   12.1901   15.1648   20.9088 C    0  0  0  0  0  0  0  0  0  0  0  0
   12.6199   16.3443   21.5639 C    0  0  0  0  0  0  0  0  0  0  0  0
   12.9948   17.4655   20.8938 N    0  0  0  0  0  0  0  0  0  0  0  0
   12.9452   17.4545   19.5318 C    0  0  0  0  0  0  0  0  0  0  0  0
   12.5404   16.3176   18.8078 C    0  0  0  0  0  0  0  0  0  0  0  0
   12.1668   15.1575   19.5001 C    0  0  0  0  0  0  0  0  0  0  0  0
   10.9353   11.9740   22.4133 H    0  0  0  0  0  0  0  0  0  0  0  0
    9.3816   14.0140   25.1896 H    0  0  0  0  0  0  0  0  0  0  0  0
    7.6528   13.1130   26.6280 H    0  0  0  0  0  0  0  0  0  0  0  0
    6.8944   10.7544   26.3871 H    0  0  0  0  0  0  0  0  0  0  0  0
    7.8901    9.3054   24.6769 H    0  0  0  0  0  0  0  0  0  0  0  0
    8.7230    8.2940   22.6105 H    0  0  0  0  0  0  0  0  0  0  0  0
   10.0684    8.1558   23.7795 H    0  0  0  0  0  0  0  0  0  0  0  0
   10.4119    8.2734   22.0367 H    0  0  0  0  0  0  0  0  0  0  0  0
   11.8719   13.1223   21.1241 H    0  0  0  0  0  0  0  0  0  0  0  0
   12.6589   16.3651   22.6516 H    0  0  0  0  0  0  0  0  0  0  0  0
   13.2231   18.3535   18.9896 H    0  0  0  0  0  0  0  0  0  0  0  0
   12.5250   16.3381   17.7221 H    0  0  0  0  0  0  0  0  0  0  0  0
   11.8509   14.2740   18.9523 H    0  0  0  0  0  0  0  0  0  0  0  0
  3  2  1  0  0  0  0
  4  3  1  0  0  0  0
  5  4  1  0  0  0  0
  1  2  2  0  0  0  0
 19  3  1  0  0  0  0
 20  5  1  0  0  0  0
  6  5  2  0  0  0  0
 21  6  1  0  0  0  0
  7  6  1  0  0  0  0
 22  7  1  0  0  0  0
  8  7  2  0  0  0  0
 23  8  1  0  0  0  0
  9  8  1  0  0  0  0
 10  9  1  0  0  0  0
 11 10  1  0  0  0  0
 24 11  1  0  0  0  0
 25 11  1  0  0  0  0
 26 11  1  0  0  0  0
 12  2  1  0  0  0  0
 27 12  1  0  0  0  0
 13 12  1  0  0  0  0
 18 13  2  0  0  0  0
 14 13  1  0  0  0  0
 28 14  1  0  0  0  0
 15 14  2  0  0  0  0
 16 15  1  0  0  0  0
 29 16  1  0  0  0  0
 17 16  2  0  0  0  0
 30 17  1  0  0  0  0
 31 18  1  0  0  0  0
  9  4  2  0  0  0  0
 18 17  1  0  0  0  0
M  END
>  <FittedScore>
-36.01

$$$$
