A71EV2A-x2629a_lowest-energy
  FITTED

 31 32     0  0  0  0  0  0  0999 V2000
   10.4162   14.9639   23.0714 O    0  0  0  0  0  0  0  0  0  0  0  0
   10.9603   13.9773   22.6201 C    0  0  0  0  0  0  0  0  0  0  0  0
   10.5680   12.7091   22.8860 N    0  0  0  0  0  0  0  0  0  0  0  0
    9.6560   12.1830   23.8864 C    0  0  0  0  0  0  0  0  0  0  0  0
    9.1185   12.9667   24.9363 C    0  0  0  0  0  0  0  0  0  0  0  0
    8.1838   12.4325   25.8275 C    0  0  0  0  0  0  0  0  0  0  0  0
    7.7707   11.1044   25.6979 C    0  0  0  0  0  0  0  0  0  0  0  0
    8.3215   10.3034   24.6940 C    0  0  0  0  0  0  0  0  0  0  0  0
    9.2905   10.8206   23.8021 C    0  0  0  0  0  0  0  0  0  0  0  0
    9.8924   10.0321   22.8247 O    0  0  0  0  0  0  0  0  0  0  0  0
    9.8562    8.5925   22.7934 C    0  0  0  0  0  0  0  0  0  0  0  0
   11.7907   14.0244   21.5494 N    0  0  0  0  0  0  0  0  0  0  0  0
   12.2731   15.1923   20.8532 C    0  0  0  0  0  0  0  0  0  0  0  0
   12.3946   15.1616   19.4494 C    0  0  0  0  0  0  0  0  0  0  0  0
   12.7556   16.2595   18.7216 N    0  0  0  0  0  0  0  0  0  0  0  0
   13.0521   17.4156   19.3793 C    0  0  0  0  0  0  0  0  0  0  0  0
   12.9834   17.5172   20.7790 C    0  0  0  0  0  0  0  0  0  0  0  0
   12.5881   16.3953   21.5210 C    0  0  0  0  0  0  0  0  0  0  0  0
   10.8529   12.0144   22.1974 H    0  0  0  0  0  0  0  0  0  0  0  0
    9.4054   14.0015   25.0951 H    0  0  0  0  0  0  0  0  0  0  0  0
    7.7765   13.0529   26.6239 H    0  0  0  0  0  0  0  0  0  0  0  0
    7.0304   10.6939   26.3770 H    0  0  0  0  0  0  0  0  0  0  0  0
    7.9739    9.2777   24.6256 H    0  0  0  0  0  0  0  0  0  0  0  0
    8.8308    8.2298   22.7030 H    0  0  0  0  0  0  0  0  0  0  0  0
   10.3278    8.1762   23.6883 H    0  0  0  0  0  0  0  0  0  0  0  0
   10.4088    8.2486   21.9132 H    0  0  0  0  0  0  0  0  0  0  0  0
   11.9155   13.1584   21.0344 H    0  0  0  0  0  0  0  0  0  0  0  0
   12.1636   14.2412   18.9140 H    0  0  0  0  0  0  0  0  0  0  0  0
   13.3536   18.2861   18.8032 H    0  0  0  0  0  0  0  0  0  0  0  0
   13.2113   18.4552   21.2796 H    0  0  0  0  0  0  0  0  0  0  0  0
   12.5226   16.4794   22.6032 H    0  0  0  0  0  0  0  0  0  0  0  0
  3  2  1  0  0  0  0
  4  3  1  0  0  0  0
  5  4  1  0  0  0  0
  1  2  2  0  0  0  0
 19  3  1  0  0  0  0
 20  5  1  0  0  0  0
  6  5  2  0  0  0  0
 21  6  1  0  0  0  0
  7  6  1  0  0  0  0
 22  7  1  0  0  0  0
  8  7  2  0  0  0  0
 23  8  1  0  0  0  0
  9  8  1  0  0  0  0
 10  9  1  0  0  0  0
 11 10  1  0  0  0  0
 24 11  1  0  0  0  0
 25 11  1  0  0  0  0
 26 11  1  0  0  0  0
 12  2  1  0  0  0  0
 27 12  1  0  0  0  0
 13 12  1  0  0  0  0
 18 13  2  0  0  0  0
 14 13  1  0  0  0  0
 28 14  1  0  0  0  0
 15 14  2  0  0  0  0
 16 15  1  0  0  0  0
 29 16  1  0  0  0  0
 17 16  2  0  0  0  0
 30 17  1  0  0  0  0
 31 18  1  0  0  0  0
  9  4  2  0  0  0  0
 18 17  1  0  0  0  0
M  END
>  <FittedScore>
-37.06

$$$$
