A71EV2A-x3612a_best-RMSD
  FITTED

 35 36     0  0  0  0  0  0  0999 V2000
    8.8066   10.8194   23.7735 F    0  0  0  0  0  0  0  0  0  0  0  0
    7.8524   10.9757   24.7107 C    0  0  0  0  0  0  0  0  0  0  0  0
    7.1918    9.8382   25.1890 C    0  0  0  0  0  0  0  0  0  0  0  0
    6.2197    9.9609   26.1926 C    0  0  0  0  0  0  0  0  0  0  0  0
    5.9070   11.2195   26.7226 C    0  0  0  0  0  0  0  0  0  0  0  0
    6.5499   12.3638   26.2287 C    0  0  0  0  0  0  0  0  0  0  0  0
    7.5052   12.2519   25.2038 C    0  0  0  0  0  0  0  0  0  0  0  0
    8.0678   13.4415   24.6412 N    0  0  0  0  0  0  0  0  0  0  0  0
    8.0528   13.7901   23.3276 C    0  0  0  0  0  0  0  0  0  0  0  0
    7.2798   13.2310   22.5592 O    0  0  0  0  0  0  0  0  0  0  0  0
    8.8190   14.8758   22.9544 N    0  0  0  0  0  0  0  0  0  0  0  0
    9.8086   15.6357   23.8041 C    0  0  0  0  0  0  0  0  0  0  0  0
   11.2393   15.7011   23.1955 C    0  0  0  0  0  0  0  0  0  0  0  0
   11.2341   16.1685   21.7144 C    0  0  0  0  0  0  0  0  0  0  0  0
    8.7929   15.4262   21.5621 C    0  0  0  0  0  0  0  0  0  0  0  0
   10.1890   15.3761   20.8846 C    0  0  0  0  0  0  0  0  0  0  0  0
   10.1642   15.8291   19.4293 C    0  0  0  0  0  0  0  0  0  0  0  0
    9.5819   16.8219   19.0331 O    0  0  0  0  0  0  0  0  0  0  0  0
   10.7268   14.9806   18.5477 N    0  0  0  0  0  0  0  0  0  0  0  0
    7.4391    8.8599   24.7851 H    0  0  0  0  0  0  0  0  0  0  0  0
    5.7110    9.0761   26.5623 H    0  0  0  0  0  0  0  0  0  0  0  0
    5.1577   11.3098   27.5038 H    0  0  0  0  0  0  0  0  0  0  0  0
    6.2782   13.3390   26.6231 H    0  0  0  0  0  0  0  0  0  0  0  0
    8.3225   14.1457   25.3308 H    0  0  0  0  0  0  0  0  0  0  0  0
    9.4323   16.6516   23.9546 H    0  0  0  0  0  0  0  0  0  0  0  0
    9.9148   15.2184   24.8053 H    0  0  0  0  0  0  0  0  0  0  0  0
   11.8617   16.3765   23.7879 H    0  0  0  0  0  0  0  0  0  0  0  0
   11.6997   14.7105   23.2598 H    0  0  0  0  0  0  0  0  0  0  0  0
   11.0337   17.2436   21.6621 H    0  0  0  0  0  0  0  0  0  0  0  0
   12.2280   16.0107   21.2884 H    0  0  0  0  0  0  0  0  0  0  0  0
    8.4338   16.4537   21.5890 H    0  0  0  0  0  0  0  0  0  0  0  0
    8.0957   14.9059   20.9065 H    0  0  0  0  0  0  0  0  0  0  0  0
   10.4778   14.3226   20.9209 H    0  0  0  0  0  0  0  0  0  0  0  0
   11.0395   14.0635   18.8762 H    0  0  0  0  0  0  0  0  0  0  0  0
   10.6457   15.1608   17.5533 H    0  0  0  0  0  0  0  0  0  0  0  0
  8  9  1  0  0  0  0
  7  8  1  0  0  0  0
  6  7  2  0  0  0  0
  5  6  1  0  0  0  0
  4  5  2  0  0  0  0
  3  4  1  0  0  0  0
  2  3  2  0  0  0  0
  1  2  1  0  0  0  0
 20  3  1  0  0  0  0
 21  4  1  0  0  0  0
 22  5  1  0  0  0  0
 23  6  1  0  0  0  0
 24  8  1  0  0  0  0
 10  9  2  0  0  0  0
 11  9  1  0  0  0  0
 12 11  1  0  0  0  0
 25 12  1  0  0  0  0
 26 12  1  0  0  0  0
 13 12  1  0  0  0  0
 27 13  1  0  0  0  0
 28 13  1  0  0  0  0
 14 13  1  0  0  0  0
 29 14  1  0  0  0  0
 30 14  1  0  0  0  0
 15 11  1  0  0  0  0
 31 15  1  0  0  0  0
 32 15  1  0  0  0  0
 16 14  1  0  0  0  0
 17 16  1  0  0  0  0
 33 16  1  0  0  0  0
 18 17  2  0  0  0  0
 19 17  1  0  0  0  0
 34 19  1  0  0  0  0
 35 19  1  0  0  0  0
  7  2  1  0  0  0  0
 16 15  1  0  0  0  0
M  END
>  <FittedScore>
-37.32

$$$$
