A71EV2A-x5793b_lowest-energy
  FITTED

 35 36     0  0  0  0  0  0  0999 V2000
   10.6371   14.8891   18.8968 N    0  0  0  0  0  0  0  0  0  0  0  0
   10.2258   15.7746   19.8283 C    0  0  0  0  0  0  0  0  0  0  0  0
    9.7188   16.8247   19.4785 O    0  0  0  0  0  0  0  0  0  0  0  0
   10.2623   15.2970   21.2838 C    0  0  0  0  0  0  0  0  0  0  0  0
   11.2008   16.1841   22.1533 C    0  0  0  0  0  0  0  0  0  0  0  0
   11.1644   15.7427   23.6447 C    0  0  0  0  0  0  0  0  0  0  0  0
    9.7160   15.5662   24.1873 C    0  0  0  0  0  0  0  0  0  0  0  0
    8.8383   14.7047   23.3211 N    0  0  0  0  0  0  0  0  0  0  0  0
    8.1287   13.5834   23.7044 C    0  0  0  0  0  0  0  0  0  0  0  0
    7.4632   12.9515   22.9056 O    0  0  0  0  0  0  0  0  0  0  0  0
    8.1279   13.2227   25.0230 N    0  0  0  0  0  0  0  0  0  0  0  0
    7.4991   12.0599   25.5938 C    0  0  0  0  0  0  0  0  0  0  0  0
    6.5446   12.2717   26.6051 C    0  0  0  0  0  0  0  0  0  0  0  0
    5.8293   11.1921   27.1454 C    0  0  0  0  0  0  0  0  0  0  0  0
    6.0711    9.8915   26.6851 C    0  0  0  0  0  0  0  0  0  0  0  0
    7.0474    9.6661   25.7014 C    0  0  0  0  0  0  0  0  0  0  0  0
    7.7799   10.7376   25.1626 C    0  0  0  0  0  0  0  0  0  0  0  0
    9.0290   10.3653   24.0116 CL   0  0  0  0  0  0  0  0  0  0  0  0
    8.8341   15.2228   21.9090 C    0  0  0  0  0  0  0  0  0  0  0  0
   10.6030   15.1343   17.9114 H    0  0  0  0  0  0  0  0  0  0  0  0
   10.8774   13.9364   19.1672 H    0  0  0  0  0  0  0  0  0  0  0  0
   10.6660   14.2761   21.3201 H    0  0  0  0  0  0  0  0  0  0  0  0
   10.9111   17.2375   22.0791 H    0  0  0  0  0  0  0  0  0  0  0  0
   12.2246   16.1078   21.7794 H    0  0  0  0  0  0  0  0  0  0  0  0
   11.6883   16.4886   24.2487 H    0  0  0  0  0  0  0  0  0  0  0  0
   11.7161   14.8029   23.7569 H    0  0  0  0  0  0  0  0  0  0  0  0
    9.2457   16.5468   24.2938 H    0  0  0  0  0  0  0  0  0  0  0  0
    9.8088   15.1828   25.2050 H    0  0  0  0  0  0  0  0  0  0  0  0
    8.4560   13.8811   25.7301 H    0  0  0  0  0  0  0  0  0  0  0  0
    6.3333   13.2765   26.9605 H    0  0  0  0  0  0  0  0  0  0  0  0
    5.0791   11.3678   27.9135 H    0  0  0  0  0  0  0  0  0  0  0  0
    5.5066    9.0548   27.0953 H    0  0  0  0  0  0  0  0  0  0  0  0
    7.2398    8.6503   25.3655 H    0  0  0  0  0  0  0  0  0  0  0  0
    8.3695   16.2145   21.8999 H    0  0  0  0  0  0  0  0  0  0  0  0
    8.2101   14.6214   21.2398 H    0  0  0  0  0  0  0  0  0  0  0  0
  8  9  1  0  0  0  0
  7  8  1  0  0  0  0
  6  7  1  0  0  0  0
  5  6  1  0  0  0  0
  4  5  1  0  0  0  0
  2  4  1  0  0  0  0
  1  2  1  0  0  0  0
 20  1  1  0  0  0  0
 21  1  1  0  0  0  0
  3  2  2  0  0  0  0
 22  4  1  0  0  0  0
 23  5  1  0  0  0  0
 24  5  1  0  0  0  0
 25  6  1  0  0  0  0
 26  6  1  0  0  0  0
 27  7  1  0  0  0  0
 28  7  1  0  0  0  0
 19  8  1  0  0  0  0
 10  9  2  0  0  0  0
 11  9  1  0  0  0  0
 12 11  1  0  0  0  0
 29 11  1  0  0  0  0
 13 12  2  0  0  0  0
 14 13  1  0  0  0  0
 30 13  1  0  0  0  0
 15 14  2  0  0  0  0
 31 14  1  0  0  0  0
 16 15  1  0  0  0  0
 32 15  1  0  0  0  0
 17 16  2  0  0  0  0
 33 16  1  0  0  0  0
 18 17  1  0  0  0  0
 34 19  1  0  0  0  0
 35 19  1  0  0  0  0
 17 12  1  0  0  0  0
 19  4  1  0  0  0  0
M  END
>  <FittedScore>
-34.20

$$$$
