A71EV2A-x5793b_best-RMSD
  FITTED

 35 36     0  0  0  0  0  0  0999 V2000
   10.5938   14.8615   18.8702 N    0  0  0  0  0  0  0  0  0  0  0  0
   10.1326   15.7127   19.8145 C    0  0  0  0  0  0  0  0  0  0  0  0
    9.6671   16.7880   19.4933 O    0  0  0  0  0  0  0  0  0  0  0  0
   10.1723   15.1980   21.2522 C    0  0  0  0  0  0  0  0  0  0  0  0
   11.3517   15.8213   22.0587 C    0  0  0  0  0  0  0  0  0  0  0  0
   11.3606   15.3045   23.5252 C    0  0  0  0  0  0  0  0  0  0  0  0
    9.9612   15.4113   24.2001 C    0  0  0  0  0  0  0  0  0  0  0  0
    8.8692   14.7868   23.3727 N    0  0  0  0  0  0  0  0  0  0  0  0
    8.1288   13.6710   23.6968 C    0  0  0  0  0  0  0  0  0  0  0  0
    7.5045   13.0375   22.8634 O    0  0  0  0  0  0  0  0  0  0  0  0
    8.1424   13.2575   24.9963 N    0  0  0  0  0  0  0  0  0  0  0  0
    7.5733   12.0377   25.5018 C    0  0  0  0  0  0  0  0  0  0  0  0
    6.5491   12.1400   26.4569 C    0  0  0  0  0  0  0  0  0  0  0  0
    5.8809   10.9906   26.9054 C    0  0  0  0  0  0  0  0  0  0  0  0
    6.2475    9.7305   26.4162 C    0  0  0  0  0  0  0  0  0  0  0  0
    7.2965    9.6138   25.4956 C    0  0  0  0  0  0  0  0  0  0  0  0
    7.9714   10.7563   25.0456 C    0  0  0  0  0  0  0  0  0  0  0  0
    9.2976   10.5093   23.9568 CL   0  0  0  0  0  0  0  0  0  0  0  0
    8.8272   15.4132   22.0140 C    0  0  0  0  0  0  0  0  0  0  0  0
   10.5006   15.0886   17.8842 H    0  0  0  0  0  0  0  0  0  0  0  0
   10.8570   13.9143   19.1445 H    0  0  0  0  0  0  0  0  0  0  0  0
   10.3340   14.1109   21.2269 H    0  0  0  0  0  0  0  0  0  0  0  0
   11.2789   16.9111   22.0516 H    0  0  0  0  0  0  0  0  0  0  0  0
   12.2985   15.5613   21.5777 H    0  0  0  0  0  0  0  0  0  0  0  0
   12.0914   15.8716   24.1032 H    0  0  0  0  0  0  0  0  0  0  0  0
   11.6922   14.2628   23.5379 H    0  0  0  0  0  0  0  0  0  0  0  0
    9.7212   16.4631   24.3768 H    0  0  0  0  0  0  0  0  0  0  0  0
   10.0477   14.9679   25.1951 H    0  0  0  0  0  0  0  0  0  0  0  0
    8.4434   13.9012   25.7279 H    0  0  0  0  0  0  0  0  0  0  0  0
    6.2478   13.1133   26.8369 H    0  0  0  0  0  0  0  0  0  0  0  0
    5.0756   11.0791   27.6313 H    0  0  0  0  0  0  0  0  0  0  0  0
    5.7275    8.8420   26.7574 H    0  0  0  0  0  0  0  0  0  0  0  0
    7.5934    8.6280   25.1366 H    0  0  0  0  0  0  0  0  0  0  0  0
    8.6053   16.4820   22.1144 H    0  0  0  0  0  0  0  0  0  0  0  0
    8.0139   15.0230   21.3962 H    0  0  0  0  0  0  0  0  0  0  0  0
  8  9  1  0  0  0  0
  7  8  1  0  0  0  0
  6  7  1  0  0  0  0
  5  6  1  0  0  0  0
  4  5  1  0  0  0  0
  2  4  1  0  0  0  0
  1  2  1  0  0  0  0
 20  1  1  0  0  0  0
 21  1  1  0  0  0  0
  3  2  2  0  0  0  0
 22  4  1  0  0  0  0
 23  5  1  0  0  0  0
 24  5  1  0  0  0  0
 25  6  1  0  0  0  0
 26  6  1  0  0  0  0
 27  7  1  0  0  0  0
 28  7  1  0  0  0  0
 19  8  1  0  0  0  0
 10  9  2  0  0  0  0
 11  9  1  0  0  0  0
 12 11  1  0  0  0  0
 29 11  1  0  0  0  0
 13 12  2  0  0  0  0
 14 13  1  0  0  0  0
 30 13  1  0  0  0  0
 15 14  2  0  0  0  0
 31 14  1  0  0  0  0
 16 15  1  0  0  0  0
 32 15  1  0  0  0  0
 17 16  2  0  0  0  0
 33 16  1  0  0  0  0
 18 17  1  0  0  0  0
 34 19  1  0  0  0  0
 35 19  1  0  0  0  0
 17 12  1  0  0  0  0
 19  4  1  0  0  0  0
M  END
>  <FittedScore>
-34.17

$$$$
