A71EV2A-x5219a_best-RMSD
  FITTED

 43 44     0  0  0  0  0  0  0999 V2000
    9.8551   16.7725   19.2768 O    0  0  0  0  0  0  0  0  0  0  0  0
   10.3471   15.7133   19.6286 C    0  0  0  0  0  0  0  0  0  0  0  0
   10.7256   14.7920   18.7206 N    0  0  0  0  0  0  0  0  0  0  0  0
   10.2948   15.1990   21.0591 C    0  0  0  0  0  0  0  0  0  0  0  0
   11.2258   16.0079   22.0069 C    0  0  0  0  0  0  0  0  0  0  0  0
   11.1262   15.4449   23.4495 C    0  0  0  0  0  0  0  0  0  0  0  0
    9.6512   15.3061   23.9329 C    0  0  0  0  0  0  0  0  0  0  0  0
    8.8366   15.1778   21.5946 C    0  0  0  0  0  0  0  0  0  0  0  0
    8.7420   14.5897   22.9629 N    0  0  0  0  0  0  0  0  0  0  0  0
    7.8262   13.6199   23.2885 C    0  0  0  0  0  0  0  0  0  0  0  0
    7.0682   13.1242   22.4691 O    0  0  0  0  0  0  0  0  0  0  0  0
    7.7984   13.2559   24.5958 O    0  0  0  0  0  0  0  0  0  0  0  0
    6.8433   12.3138   25.1570 C    0  0  0  0  0  0  0  0  0  0  0  0
    7.6083   11.2640   26.0172 C    0  0  0  0  0  0  0  0  0  0  0  0
    8.5953   10.4202   25.1591 C    0  0  0  0  0  0  0  0  0  0  0  0
    5.8262   13.1518   25.9810 C    0  0  0  0  0  0  0  0  0  0  0  0
    4.8315   12.2533   26.7577 C    0  0  0  0  0  0  0  0  0  0  0  0
    5.5525   11.1621   27.5939 C    0  0  0  0  0  0  0  0  0  0  0  0
    6.5783   10.3561   26.7526 C    0  0  0  0  0  0  0  0  0  0  0  0
   10.7636   15.0441   17.7383 H    0  0  0  0  0  0  0  0  0  0  0  0
   10.8347   13.8174   18.9995 H    0  0  0  0  0  0  0  0  0  0  0  0
   10.6490   14.1599   21.0853 H    0  0  0  0  0  0  0  0  0  0  0  0
   12.2598   15.9409   21.6575 H    0  0  0  0  0  0  0  0  0  0  0  0
   10.9536   17.0681   22.0044 H    0  0  0  0  0  0  0  0  0  0  0  0
   11.6147   14.4668   23.4908 H    0  0  0  0  0  0  0  0  0  0  0  0
   11.6747   16.0970   24.1336 H    0  0  0  0  0  0  0  0  0  0  0  0
    9.6901   14.8128   24.9064 H    0  0  0  0  0  0  0  0  0  0  0  0
    9.2407   16.3026   24.1262 H    0  0  0  0  0  0  0  0  0  0  0  0
    8.2223   14.6456   20.8637 H    0  0  0  0  0  0  0  0  0  0  0  0
    8.4284   16.1940   21.6243 H    0  0  0  0  0  0  0  0  0  0  0  0
    6.2966   11.7690   24.3778 H    0  0  0  0  0  0  0  0  0  0  0  0
    8.2024   11.7921   26.7717 H    0  0  0  0  0  0  0  0  0  0  0  0
    8.1147   10.0123   24.2660 H    0  0  0  0  0  0  0  0  0  0  0  0
    9.0097    9.5881   25.7334 H    0  0  0  0  0  0  0  0  0  0  0  0
    9.4410   11.0323   24.8325 H    0  0  0  0  0  0  0  0  0  0  0  0
    6.3563   13.8046   26.6807 H    0  0  0  0  0  0  0  0  0  0  0  0
    5.2668   13.8047   25.3031 H    0  0  0  0  0  0  0  0  0  0  0  0
    4.2198   12.8758   27.4142 H    0  0  0  0  0  0  0  0  0  0  0  0
    4.1496   11.7781   26.0455 H    0  0  0  0  0  0  0  0  0  0  0  0
    6.0614   11.6283   28.4419 H    0  0  0  0  0  0  0  0  0  0  0  0
    4.8108   10.4762   28.0085 H    0  0  0  0  0  0  0  0  0  0  0  0
    7.1136    9.6778   27.4241 H    0  0  0  0  0  0  0  0  0  0  0  0
    6.0473    9.7280   26.0296 H    0  0  0  0  0  0  0  0  0  0  0  0
 10 12  1  0  0  0  0
  9 10  1  0  0  0  0
  7  9  1  0  0  0  0
  6  7  1  0  0  0  0
  5  6  1  0  0  0  0
  4  5  1  0  0  0  0
  2  4  1  0  0  0  0
  1  2  2  0  0  0  0
  3  2  1  0  0  0  0
 20  3  1  0  0  0  0
 21  3  1  0  0  0  0
 22  4  1  0  0  0  0
 23  5  1  0  0  0  0
 24  5  1  0  0  0  0
 25  6  1  0  0  0  0
 26  6  1  0  0  0  0
 27  7  1  0  0  0  0
 28  7  1  0  0  0  0
  8  4  1  0  0  0  0
 29  8  1  0  0  0  0
 30  8  1  0  0  0  0
 11 10  2  0  0  0  0
 13 12  1  0  0  0  0
 31 13  1  0  0  0  0
 14 13  1  0  0  0  0
 15 14  1  0  0  0  0
 19 14  1  0  0  0  0
 32 14  1  0  0  0  0
 33 15  1  0  0  0  0
 34 15  1  0  0  0  0
 35 15  1  0  0  0  0
 16 13  1  0  0  0  0
 36 16  1  0  0  0  0
 37 16  1  0  0  0  0
 17 16  1  0  0  0  0
 38 17  1  0  0  0  0
 39 17  1  0  0  0  0
 18 17  1  0  0  0  0
 40 18  1  0  0  0  0
 41 18  1  0  0  0  0
 42 19  1  0  0  0  0
 43 19  1  0  0  0  0
  9  8  1  0  0  0  0
 19 18  1  0  0  0  0
M  END
>  <FittedScore>
-28.36

$$$$
