A71EV2A-x4994a_lowest-energy
  FITTED

 36 38     0  0  0  0  0  0  0999 V2000
    6.0244   11.0119   29.4680 O    0  0  0  0  0  0  0  0  0  0  0  0
    5.6178   10.2723   28.5920 C    0  0  0  0  0  0  0  0  0  0  0  0
    5.4657    8.9795   28.9610 N    0  0  0  0  0  0  0  0  0  0  0  0
    5.0198   10.5093   27.1568 C    0  0  0  0  0  0  0  0  0  0  0  0
    6.2525    9.9852   26.3155 C    0  0  0  0  0  0  0  0  0  0  0  0
    5.6993   11.8645   26.6964 C    0  0  0  0  0  0  0  0  0  0  0  0
    6.8439   11.2704   25.9937 N    0  0  0  0  0  0  0  0  0  0  0  0
    7.5884   11.6045   24.9169 C    0  0  0  0  0  0  0  0  0  0  0  0
    8.2079   10.7434   24.3180 O    0  0  0  0  0  0  0  0  0  0  0  0
    7.5039   13.0289   24.3904 C    0  0  0  0  0  0  0  0  0  0  0  0
    8.9112   13.5368   24.1615 C    0  0  0  0  0  0  0  0  0  0  0  0
    9.8817   13.4540   25.0162 N    0  0  0  0  0  0  0  0  0  0  0  0
    9.4460   14.0955   22.9135 C    0  0  0  0  0  0  0  0  0  0  0  0
   10.7822   14.3109   23.1610 C    0  0  0  0  0  0  0  0  0  0  0  0
   11.0280   13.9144   24.4350 N    0  0  0  0  0  0  0  0  0  0  0  0
   12.2495   13.2179   24.8433 C    0  0  0  0  0  0  0  0  0  0  0  0
   11.6251   14.8575   22.1887 C    0  0  0  0  0  0  0  0  0  0  0  0
   11.0690   15.1690   20.9341 C    0  0  0  0  0  0  0  0  0  0  0  0
    9.7025   14.9209   20.6747 C    0  0  0  0  0  0  0  0  0  0  0  0
    8.8682   14.3762   21.6708 C    0  0  0  0  0  0  0  0  0  0  0  0
    5.7587    8.6794   29.8775 H    0  0  0  0  0  0  0  0  0  0  0  0
    5.1930    8.2905   28.2639 H    0  0  0  0  0  0  0  0  0  0  0  0
    3.9881   10.2528   26.8863 H    0  0  0  0  0  0  0  0  0  0  0  0
    6.9924    9.3158   26.7780 H    0  0  0  0  0  0  0  0  0  0  0  0
    5.9250    9.4484   25.4171 H    0  0  0  0  0  0  0  0  0  0  0  0
    5.9984   12.5981   27.4540 H    0  0  0  0  0  0  0  0  0  0  0  0
    5.0493   12.4254   26.0145 H    0  0  0  0  0  0  0  0  0  0  0  0
    6.9203   13.0206   23.4681 H    0  0  0  0  0  0  0  0  0  0  0  0
    7.0019   13.7102   25.0822 H    0  0  0  0  0  0  0  0  0  0  0  0
   12.3712   13.2340   25.9277 H    0  0  0  0  0  0  0  0  0  0  0  0
   13.1457   13.6739   24.4134 H    0  0  0  0  0  0  0  0  0  0  0  0
   12.2342   12.1688   24.5333 H    0  0  0  0  0  0  0  0  0  0  0  0
   12.6786   15.0425   22.3937 H    0  0  0  0  0  0  0  0  0  0  0  0
   11.6971   15.6072   20.1637 H    0  0  0  0  0  0  0  0  0  0  0  0
    9.2862   15.1664   19.7015 H    0  0  0  0  0  0  0  0  0  0  0  0
    7.8174   14.1813   21.4808 H    0  0  0  0  0  0  0  0  0  0  0  0
 11 12  2  0  0  0  0
 10 11  1  0  0  0  0
  8 10  1  0  0  0  0
  7  8  1  0  0  0  0
  5  7  1  0  0  0  0
  4  5  1  0  0  0  0
  2  4  1  0  0  0  0
  1  2  2  0  0  0  0
  3  2  1  0  0  0  0
 21  3  1  0  0  0  0
 22  3  1  0  0  0  0
 23  4  1  0  0  0  0
 24  5  1  0  0  0  0
 25  5  1  0  0  0  0
  6  4  1  0  0  0  0
 26  6  1  0  0  0  0
 27  6  1  0  0  0  0
  9  8  2  0  0  0  0
 28 10  1  0  0  0  0
 29 10  1  0  0  0  0
 13 11  1  0  0  0  0
 20 13  2  0  0  0  0
 14 13  1  0  0  0  0
 15 12  1  0  0  0  0
 16 15  1  0  0  0  0
 30 16  1  0  0  0  0
 31 16  1  0  0  0  0
 32 16  1  0  0  0  0
 17 14  2  0  0  0  0
 33 17  1  0  0  0  0
 18 17  1  0  0  0  0
 34 18  1  0  0  0  0
 19 18  2  0  0  0  0
 35 19  1  0  0  0  0
 36 20  1  0  0  0  0
  7  6  1  0  0  0  0
 15 14  1  0  0  0  0
 20 19  1  0  0  0  0
M  END
>  <FittedScore>
-29.19

$$$$
