A71EV2A-x4994a_best-RMSD
  FITTED

 36 38     0  0  0  0  0  0  0999 V2000
    3.1756   10.8100   27.8422 O    0  0  0  0  0  0  0  0  0  0  0  0
    4.1226   10.0430   27.8939 C    0  0  0  0  0  0  0  0  0  0  0  0
    3.8085    8.7326   27.9061 N    0  0  0  0  0  0  0  0  0  0  0  0
    5.6835   10.1976   27.9949 C    0  0  0  0  0  0  0  0  0  0  0  0
    5.8864   11.7652   28.0703 C    0  0  0  0  0  0  0  0  0  0  0  0
    5.9705   10.5359   26.4757 C    0  0  0  0  0  0  0  0  0  0  0  0
    6.1616   11.9829   26.6438 N    0  0  0  0  0  0  0  0  0  0  0  0
    6.9488   12.8900   26.0060 C    0  0  0  0  0  0  0  0  0  0  0  0
    7.4402   13.8211   26.6224 O    0  0  0  0  0  0  0  0  0  0  0  0
    7.2482   12.6511   24.5190 C    0  0  0  0  0  0  0  0  0  0  0  0
    8.6734   13.0059   24.1325 C    0  0  0  0  0  0  0  0  0  0  0  0
    9.7339   12.7061   24.8206 N    0  0  0  0  0  0  0  0  0  0  0  0
    9.0983   13.7451   22.9242 C    0  0  0  0  0  0  0  0  0  0  0  0
   10.4681   13.8591   23.0274 C    0  0  0  0  0  0  0  0  0  0  0  0
   10.8199   13.2438   24.1914 N    0  0  0  0  0  0  0  0  0  0  0  0
   12.1636   13.0567   24.7443 C    0  0  0  0  0  0  0  0  0  0  0  0
   11.2330   14.5009   22.0456 C    0  0  0  0  0  0  0  0  0  0  0  0
   10.5604   15.0168   20.9220 C    0  0  0  0  0  0  0  0  0  0  0  0
    9.1579   14.8891   20.8082 C    0  0  0  0  0  0  0  0  0  0  0  0
    8.4053   14.2614   21.8209 C    0  0  0  0  0  0  0  0  0  0  0  0
    2.8421    8.4422   27.8704 H    0  0  0  0  0  0  0  0  0  0  0  0
    4.5470    8.0376   27.8420 H    0  0  0  0  0  0  0  0  0  0  0  0
    6.3210    9.5064   28.5602 H    0  0  0  0  0  0  0  0  0  0  0  0
    5.0700   12.3914   28.4504 H    0  0  0  0  0  0  0  0  0  0  0  0
    6.7462   12.0362   28.6954 H    0  0  0  0  0  0  0  0  0  0  0  0
    5.2093   10.3105   25.7165 H    0  0  0  0  0  0  0  0  0  0  0  0
    6.8803   10.0364   26.1227 H    0  0  0  0  0  0  0  0  0  0  0  0
    7.0846   11.6130   24.2197 H    0  0  0  0  0  0  0  0  0  0  0  0
    6.5363   13.2448   23.9416 H    0  0  0  0  0  0  0  0  0  0  0  0
   12.1460   12.8924   25.8244 H    0  0  0  0  0  0  0  0  0  0  0  0
   12.8076   13.9200   24.5600 H    0  0  0  0  0  0  0  0  0  0  0  0
   12.6466   12.1877   24.2938 H    0  0  0  0  0  0  0  0  0  0  0  0
   12.3120   14.5895   22.1358 H    0  0  0  0  0  0  0  0  0  0  0  0
   11.1267   15.5088   20.1338 H    0  0  0  0  0  0  0  0  0  0  0  0
    8.6555   15.2885   19.9314 H    0  0  0  0  0  0  0  0  0  0  0  0
    7.3251   14.1744   21.7373 H    0  0  0  0  0  0  0  0  0  0  0  0
 11 12  2  0  0  0  0
 10 11  1  0  0  0  0
  8 10  1  0  0  0  0
  7  8  1  0  0  0  0
  5  7  1  0  0  0  0
  4  5  1  0  0  0  0
  2  4  1  0  0  0  0
  1  2  2  0  0  0  0
  3  2  1  0  0  0  0
 21  3  1  0  0  0  0
 22  3  1  0  0  0  0
 23  4  1  0  0  0  0
 24  5  1  0  0  0  0
 25  5  1  0  0  0  0
  6  4  1  0  0  0  0
 26  6  1  0  0  0  0
 27  6  1  0  0  0  0
  9  8  2  0  0  0  0
 28 10  1  0  0  0  0
 29 10  1  0  0  0  0
 13 11  1  0  0  0  0
 20 13  2  0  0  0  0
 14 13  1  0  0  0  0
 15 12  1  0  0  0  0
 16 15  1  0  0  0  0
 30 16  1  0  0  0  0
 31 16  1  0  0  0  0
 32 16  1  0  0  0  0
 17 14  2  0  0  0  0
 33 17  1  0  0  0  0
 18 17  1  0  0  0  0
 34 18  1  0  0  0  0
 19 18  2  0  0  0  0
 35 19  1  0  0  0  0
 36 20  1  0  0  0  0
  7  6  1  0  0  0  0
 15 14  1  0  0  0  0
 20 19  1  0  0  0  0
M  END
>  <FittedScore>
-26.94

$$$$
