A71EV2A-x4673a_best-RMSD
  FITTED

 39 41     0  0  0  0  0  0  0999 V2000
    9.4029    9.8732   24.3655 BR   0  0  0  0  0  0  0  0  0  0  0  0
    7.8802   10.6083   25.2758 C    0  0  0  0  0  0  0  0  0  0  0  0
    6.9263    9.6805   25.7430 C    0  0  0  0  0  0  0  0  0  0  0  0
    5.7795   10.1665   26.3738 C    0  0  0  0  0  0  0  0  0  0  0  0
    4.7473    9.4635   26.9086 O    0  0  0  0  0  0  0  0  0  0  0  0
    3.7936   10.4268   27.4366 C    0  0  0  0  0  0  0  0  0  0  0  0
    4.3674   11.7345   27.1704 O    0  0  0  0  0  0  0  0  0  0  0  0
    5.5534   11.5084   26.5369 C    0  0  0  0  0  0  0  0  0  0  0  0
    6.4695   12.4528   26.0938 C    0  0  0  0  0  0  0  0  0  0  0  0
    7.6609   12.0108   25.4706 C    0  0  0  0  0  0  0  0  0  0  0  0
    8.6239   13.1122   25.0178 C    0  0  0  0  0  0  0  0  0  0  0  0
    8.3812   13.6244   23.5907 C    0  0  0  0  0  0  0  0  0  0  0  0
    7.5332   13.0981   22.8839 O    0  0  0  0  0  0  0  0  0  0  0  0
    9.1583   14.6673   23.1250 N    0  0  0  0  0  0  0  0  0  0  0  0
   10.1763   15.4674   23.9042 C    0  0  0  0  0  0  0  0  0  0  0  0
   11.5754   15.5205   23.2303 C    0  0  0  0  0  0  0  0  0  0  0  0
   11.4919   16.0031   21.7602 C    0  0  0  0  0  0  0  0  0  0  0  0
    9.0414   15.2093   21.7318 C    0  0  0  0  0  0  0  0  0  0  0  0
   10.4122   15.1892   20.9937 C    0  0  0  0  0  0  0  0  0  0  0  0
   10.3003   15.6633   19.5531 C    0  0  0  0  0  0  0  0  0  0  0  0
    9.8135   16.7311   19.2243 O    0  0  0  0  0  0  0  0  0  0  0  0
   10.7310   14.7742   18.6392 N    0  0  0  0  0  0  0  0  0  0  0  0
    7.0647    8.6095   25.6182 H    0  0  0  0  0  0  0  0  0  0  0  0
    3.6549   10.2764   28.5123 H    0  0  0  0  0  0  0  0  0  0  0  0
    2.8301   10.3265   26.9259 H    0  0  0  0  0  0  0  0  0  0  0  0
    6.2539   13.5108   26.2269 H    0  0  0  0  0  0  0  0  0  0  0  0
    8.5279   13.9479   25.7176 H    0  0  0  0  0  0  0  0  0  0  0  0
    9.6578   12.7784   25.1286 H    0  0  0  0  0  0  0  0  0  0  0  0
    9.8024   16.4881   24.0355 H    0  0  0  0  0  0  0  0  0  0  0  0
   10.3466   15.1048   24.9143 H    0  0  0  0  0  0  0  0  0  0  0  0
   12.2350   16.1867   23.7894 H    0  0  0  0  0  0  0  0  0  0  0  0
   12.0314   14.5267   23.2583 H    0  0  0  0  0  0  0  0  0  0  0  0
   11.2538   17.0719   21.7303 H    0  0  0  0  0  0  0  0  0  0  0  0
   12.4634   15.8818   21.2707 H    0  0  0  0  0  0  0  0  0  0  0  0
    8.6446   16.2301   21.7707 H    0  0  0  0  0  0  0  0  0  0  0  0
    8.3259   14.6469   21.1206 H    0  0  0  0  0  0  0  0  0  0  0  0
   10.7392   14.1389   21.0012 H    0  0  0  0  0  0  0  0  0  0  0  0
   10.7326   15.0194   17.6590 H    0  0  0  0  0  0  0  0  0  0  0  0
   10.9933   13.8290   18.9192 H    0  0  0  0  0  0  0  0  0  0  0  0
 11 12  1  0  0  0  0
 10 11  1  0  0  0  0
  9 10  2  0  0  0  0
  8  9  1  0  0  0  0
  4  8  2  0  0  0  0
  3  4  1  0  0  0  0
  2  3  2  0  0  0  0
  1  2  1  0  0  0  0
 23  3  1  0  0  0  0
  5  4  1  0  0  0  0
  6  5  1  0  0  0  0
 24  6  1  0  0  0  0
 25  6  1  0  0  0  0
  7  6  1  0  0  0  0
 26  9  1  0  0  0  0
 27 11  1  0  0  0  0
 28 11  1  0  0  0  0
 13 12  2  0  0  0  0
 14 12  1  0  0  0  0
 15 14  1  0  0  0  0
 29 15  1  0  0  0  0
 30 15  1  0  0  0  0
 16 15  1  0  0  0  0
 31 16  1  0  0  0  0
 32 16  1  0  0  0  0
 17 16  1  0  0  0  0
 33 17  1  0  0  0  0
 34 17  1  0  0  0  0
 18 14  1  0  0  0  0
 35 18  1  0  0  0  0
 36 18  1  0  0  0  0
 19 17  1  0  0  0  0
 20 19  1  0  0  0  0
 37 19  1  0  0  0  0
 21 20  2  0  0  0  0
 22 20  1  0  0  0  0
 38 22  1  0  0  0  0
 39 22  1  0  0  0  0
  8  7  1  0  0  0  0
 10  2  1  0  0  0  0
 19 18  1  0  0  0  0
M  END
>  <FittedScore>
-33.99

$$$$
