A71EV2A-x3694b_lowest-energy
  FITTED

 40 41     0  0  0  0  0  0  0999 V2000
    9.9278   16.8242   19.1652 O    0  0  0  0  0  0  0  0  0  0  0  0
   10.5815   15.8415   19.4413 C    0  0  0  0  0  0  0  0  0  0  0  0
   10.4265   14.7035   18.7422 N    0  0  0  0  0  0  0  0  0  0  0  0
   11.3751   15.7077   20.7324 C    0  0  0  0  0  0  0  0  0  0  0  0
   10.4961   15.9354   22.0000 C    0  0  0  0  0  0  0  0  0  0  0  0
   11.3090   15.8079   23.3052 C    0  0  0  0  0  0  0  0  0  0  0  0
   10.7488   14.5833   24.0369 C    0  0  0  0  0  0  0  0  0  0  0  0
    9.3183   14.9340   22.1543 C    0  0  0  0  0  0  0  0  0  0  0  0
    9.4633   14.1963   23.4207 N    0  0  0  0  0  0  0  0  0  0  0  0
    8.5327   13.3129   23.9178 C    0  0  0  0  0  0  0  0  0  0  0  0
    7.4973   13.0601   23.3254 O    0  0  0  0  0  0  0  0  0  0  0  0
    8.8034   12.6940   25.2883 C    0  0  0  0  0  0  0  0  0  0  0  0
    7.8555   11.5450   25.6421 C    0  0  0  0  0  0  0  0  0  0  0  0
    8.0092   10.2674   25.0607 C    0  0  0  0  0  0  0  0  0  0  0  0
    9.0687   10.0731   24.1746 O    0  0  0  0  0  0  0  0  0  0  0  0
    9.4310    8.8370   23.5263 C    0  0  0  0  0  0  0  0  0  0  0  0
    6.7902   11.7849   26.5315 C    0  0  0  0  0  0  0  0  0  0  0  0
    5.9145   10.7533   26.8864 C    0  0  0  0  0  0  0  0  0  0  0  0
    6.0750    9.4794   26.3267 C    0  0  0  0  0  0  0  0  0  0  0  0
    7.1006    9.2442   25.4008 C    0  0  0  0  0  0  0  0  0  0  0  0
    9.9137   14.7057   17.8744 H    0  0  0  0  0  0  0  0  0  0  0  0
   10.8197   13.8255   19.0735 H    0  0  0  0  0  0  0  0  0  0  0  0
   11.8699   14.7305   20.8014 H    0  0  0  0  0  0  0  0  0  0  0  0
   12.1739   16.4529   20.7051 H    0  0  0  0  0  0  0  0  0  0  0  0
   10.0825   16.9476   21.9557 H    0  0  0  0  0  0  0  0  0  0  0  0
   12.3842   15.6936   23.1313 H    0  0  0  0  0  0  0  0  0  0  0  0
   11.1735   16.7063   23.9185 H    0  0  0  0  0  0  0  0  0  0  0  0
   11.4538   13.7508   23.9706 H    0  0  0  0  0  0  0  0  0  0  0  0
   10.6192   14.8350   25.0913 H    0  0  0  0  0  0  0  0  0  0  0  0
    9.2744   14.2077   21.3391 H    0  0  0  0  0  0  0  0  0  0  0  0
    8.3687   15.4771   22.1438 H    0  0  0  0  0  0  0  0  0  0  0  0
    9.8285   12.3148   25.3522 H    0  0  0  0  0  0  0  0  0  0  0  0
    8.7464   13.4803   26.0449 H    0  0  0  0  0  0  0  0  0  0  0  0
   10.3267    9.0022   22.9208 H    0  0  0  0  0  0  0  0  0  0  0  0
    8.6208    8.5037   22.8725 H    0  0  0  0  0  0  0  0  0  0  0  0
    9.6545    8.0742   24.2762 H    0  0  0  0  0  0  0  0  0  0  0  0
    6.6405   12.7732   26.9585 H    0  0  0  0  0  0  0  0  0  0  0  0
    5.1148   10.9363   27.5927 H    0  0  0  0  0  0  0  0  0  0  0  0
    5.4123    8.6683   26.6130 H    0  0  0  0  0  0  0  0  0  0  0  0
    7.1835    8.2520   24.9665 H    0  0  0  0  0  0  0  0  0  0  0  0
  9 10  1  0  0  0  0
  7  9  1  0  0  0  0
  6  7  1  0  0  0  0
  5  6  1  0  0  0  0
  4  5  1  0  0  0  0
  2  4  1  0  0  0  0
  1  2  2  0  0  0  0
  3  2  1  0  0  0  0
 21  3  1  0  0  0  0
 22  3  1  0  0  0  0
 23  4  1  0  0  0  0
 24  4  1  0  0  0  0
 25  5  1  0  0  0  0
 26  6  1  0  0  0  0
 27  6  1  0  0  0  0
 28  7  1  0  0  0  0
 29  7  1  0  0  0  0
  8  5  1  0  0  0  0
 30  8  1  0  0  0  0
 31  8  1  0  0  0  0
 11 10  2  0  0  0  0
 12 10  1  0  0  0  0
 32 12  1  0  0  0  0
 33 12  1  0  0  0  0
 13 12  1  0  0  0  0
 14 13  1  0  0  0  0
 20 14  2  0  0  0  0
 15 14  1  0  0  0  0
 16 15  1  0  0  0  0
 34 16  1  0  0  0  0
 35 16  1  0  0  0  0
 36 16  1  0  0  0  0
 17 13  2  0  0  0  0
 37 17  1  0  0  0  0
 18 17  1  0  0  0  0
 38 18  1  0  0  0  0
 19 18  2  0  0  0  0
 39 19  1  0  0  0  0
 40 20  1  0  0  0  0
  9  8  1  0  0  0  0
 20 19  1  0  0  0  0
M  END
>  <FittedScore>
-34.94

$$$$
