A71EV2A-x5822a_best-RMSD
  FITTED

 47 50     0  0  0  0  0  0  0999 V2000
    9.6077   15.4610   25.5626 O    0  0  0  0  0  0  0  0  0  0  0  0
    8.9796   15.2869   24.5263 C    0  0  0  0  0  0  0  0  0  0  0  0
    9.6374   15.5806   23.3423 N    0  0  0  0  0  0  0  0  0  0  0  0
   10.9843   16.2057   23.3044 C    0  0  0  0  0  0  0  0  0  0  0  0
   11.3973   16.4468   21.8501 C    0  0  0  0  0  0  0  0  0  0  0  0
    9.3291   15.1846   21.9447 C    0  0  0  0  0  0  0  0  0  0  0  0
   10.6023   15.3787   21.0987 C    0  0  0  0  0  0  0  0  0  0  0  0
   10.3343   15.7320   19.6406 C    0  0  0  0  0  0  0  0  0  0  0  0
    9.7272   16.7209   19.2785 O    0  0  0  0  0  0  0  0  0  0  0  0
   10.6047   14.7513   18.7629 N    0  0  0  0  0  0  0  0  0  0  0  0
    7.5549   14.6071   24.6401 C    0  0  0  0  0  0  0  0  0  0  0  0
    6.8397   15.2586   25.9137 C    0  0  0  0  0  0  0  0  0  0  0  0
    6.5488   16.7844   25.7543 C    0  0  0  0  0  0  0  0  0  0  0  0
    5.7528   17.0199   24.5527 O    0  0  0  0  0  0  0  0  0  0  0  0
    6.2436   16.4524   23.3057 C    0  0  0  0  0  0  0  0  0  0  0  0
    6.5304   14.9294   23.4758 C    0  0  0  0  0  0  0  0  0  0  0  0
    7.7342   13.0492   24.7554 C    0  0  0  0  0  0  0  0  0  0  0  0
    8.8429   12.3624   24.1769 C    0  0  0  0  0  0  0  0  0  0  0  0
    8.8568   10.9656   24.1430 C    0  0  0  0  0  0  0  0  0  0  0  0
    9.7602   10.1344   23.5345 O    0  0  0  0  0  0  0  0  0  0  0  0
    9.1681    8.8100   23.5459 C    0  0  0  0  0  0  0  0  0  0  0  0
    8.0193    8.8967   24.4363 O    0  0  0  0  0  0  0  0  0  0  0  0
    7.8463   10.2257   24.7009 C    0  0  0  0  0  0  0  0  0  0  0  0
    6.7782   10.8396   25.3510 C    0  0  0  0  0  0  0  0  0  0  0  0
    6.7161   12.2427   25.3535 C    0  0  0  0  0  0  0  0  0  0  0  0
   10.9748   17.1569   23.8471 H    0  0  0  0  0  0  0  0  0  0  0  0
   11.7128   15.5439   23.7837 H    0  0  0  0  0  0  0  0  0  0  0  0
   11.1136   17.4593   21.5445 H    0  0  0  0  0  0  0  0  0  0  0  0
   12.4740   16.3260   21.6989 H    0  0  0  0  0  0  0  0  0  0  0  0
    8.5291   15.8135   21.5534 H    0  0  0  0  0  0  0  0  0  0  0  0
    9.0116   14.1439   21.8671 H    0  0  0  0  0  0  0  0  0  0  0  0
   11.1841   14.4497   21.1448 H    0  0  0  0  0  0  0  0  0  0  0  0
   10.8315   13.8046   19.0717 H    0  0  0  0  0  0  0  0  0  0  0  0
   10.4797   14.9324   17.7767 H    0  0  0  0  0  0  0  0  0  0  0  0
    5.8657   14.8049   26.1066 H    0  0  0  0  0  0  0  0  0  0  0  0
    7.4129   15.0758   26.8268 H    0  0  0  0  0  0  0  0  0  0  0  0
    5.9805   17.1453   26.6123 H    0  0  0  0  0  0  0  0  0  0  0  0
    7.4697   17.3713   25.7048 H    0  0  0  0  0  0  0  0  0  0  0  0
    5.4863   16.6002   22.5337 H    0  0  0  0  0  0  0  0  0  0  0  0
    7.1271   17.0140   22.9974 H    0  0  0  0  0  0  0  0  0  0  0  0
    5.5734   14.4425   23.6900 H    0  0  0  0  0  0  0  0  0  0  0  0
    6.8135   14.4779   22.5280 H    0  0  0  0  0  0  0  0  0  0  0  0
    9.6853   12.8698   23.7195 H    0  0  0  0  0  0  0  0  0  0  0  0
    9.8919    8.0708   23.9049 H    0  0  0  0  0  0  0  0  0  0  0  0
    8.8413    8.5455   22.5367 H    0  0  0  0  0  0  0  0  0  0  0  0
    5.9807   10.2499   25.7872 H    0  0  0  0  0  0  0  0  0  0  0  0
    5.8317   12.6761   25.8008 H    0  0  0  0  0  0  0  0  0  0  0  0
  2  1  2  0  0  0  0
  3  2  1  0  0  0  0
  4  3  1  0  0  0  0
 26  4  1  0  0  0  0
 27  4  1  0  0  0  0
  5  4  1  0  0  0  0
 28  5  1  0  0  0  0
 29  5  1  0  0  0  0
  6  3  1  0  0  0  0
 30  6  1  0  0  0  0
 31  6  1  0  0  0  0
  7  5  1  0  0  0  0
  8  7  1  0  0  0  0
 32  7  1  0  0  0  0
  9  8  2  0  0  0  0
 10  8  1  0  0  0  0
 33 10  1  0  0  0  0
 34 10  1  0  0  0  0
 11  2  1  0  0  0  0
 16 11  1  0  0  0  0
 12 11  1  0  0  0  0
 35 12  1  0  0  0  0
 36 12  1  0  0  0  0
 13 12  1  0  0  0  0
 37 13  1  0  0  0  0
 38 13  1  0  0  0  0
 14 13  1  0  0  0  0
 15 14  1  0  0  0  0
 39 15  1  0  0  0  0
 40 15  1  0  0  0  0
 41 16  1  0  0  0  0
 42 16  1  0  0  0  0
 17 11  1  0  0  0  0
 25 17  2  0  0  0  0
 18 17  1  0  0  0  0
 43 18  1  0  0  0  0
 19 18  2  0  0  0  0
 20 19  1  0  0  0  0
 21 20  1  0  0  0  0
 44 21  1  0  0  0  0
 45 21  1  0  0  0  0
 22 21  1  0  0  0  0
 23 19  1  0  0  0  0
 24 23  2  0  0  0  0
 46 24  1  0  0  0  0
 47 25  1  0  0  0  0
  7  6  1  0  0  0  0
 16 15  1  0  0  0  0
 23 22  1  0  0  0  0
 25 24  1  0  0  0  0
M  END
>  <FittedScore>
-31.82

$$$$
