A71EV2A-x7608a_best-RMSD
  FITTED

 50 52     0  0  0  0  0  0  0999 V2000
    9.4633    8.8804   23.5097 C    0  0  0  0  0  0  0  0  0  0  0  0
    9.2155   10.6408   23.9501 S    0  0  0  0  0  0  0  0  0  0  0  0
    7.7341   10.7345   24.9688 C    0  0  0  0  0  0  0  0  0  0  0  0
    7.2007    9.5343   25.3222 N    0  0  0  0  0  0  0  0  0  0  0  0
    6.1045    9.5059   26.1134 C    0  0  0  0  0  0  0  0  0  0  0  0
    5.4526   10.6097   26.5514 N    0  0  0  0  0  0  0  0  0  0  0  0
    5.9172   11.8394   26.1784 C    0  0  0  0  0  0  0  0  0  0  0  0
    5.1473   12.9208   26.5986 N    0  0  0  0  0  0  0  0  0  0  0  0
    4.6961   13.9102   25.5871 C    0  0  0  0  0  0  0  0  0  0  0  0
    4.7352   12.9581   28.0494 C    0  0  0  0  0  0  0  0  0  0  0  0
    3.3457   12.4180   28.5172 C    0  0  0  0  0  0  0  0  0  0  0  0
    3.1182   11.1562   28.1130 F    0  0  0  0  0  0  0  0  0  0  0  0
    3.2191   12.4562   29.8524 F    0  0  0  0  0  0  0  0  0  0  0  0
    2.3408   13.1685   28.0243 F    0  0  0  0  0  0  0  0  0  0  0  0
    7.1091   11.9478   25.4011 C    0  0  0  0  0  0  0  0  0  0  0  0
    7.7459   13.3222   25.0784 C    0  0  0  0  0  0  0  0  0  0  0  0
    7.8419   13.6493   23.5544 C    0  0  0  0  0  0  0  0  0  0  0  0
    7.0568   13.1458   22.8121 O    0  0  0  0  0  0  0  0  0  0  0  0
    8.8097   14.5390   23.1326 N    0  0  0  0  0  0  0  0  0  0  0  0
    9.0132   14.9213   21.7856 C    0  0  0  0  0  0  0  0  0  0  0  0
   10.4638   14.9574   21.1972 C    0  0  0  0  0  0  0  0  0  0  0  0
   10.0670   15.3712   19.7837 C    0  0  0  0  0  0  0  0  0  0  0  0
   10.8225   14.8122   18.8769 N    0  0  0  0  0  0  0  0  0  0  0  0
    9.5046   16.4396   19.5150 O    0  0  0  0  0  0  0  0  0  0  0  0
   11.5271   15.7727   22.0818 C    0  0  0  0  0  0  0  0  0  0  0  0
   11.2118   15.5152   23.5878 C    0  0  0  0  0  0  0  0  0  0  0  0
   10.8144   14.2188   24.1719 C    0  0  0  0  0  0  0  0  0  0  0  0
    9.7710   15.2077   24.0271 C    0  0  0  0  0  0  0  0  0  0  0  0
   10.3900    8.7735   22.9371 H    0  0  0  0  0  0  0  0  0  0  0  0
    8.6253    8.5308   22.9039 H    0  0  0  0  0  0  0  0  0  0  0  0
    9.5588    8.2540   24.3963 H    0  0  0  0  0  0  0  0  0  0  0  0
    5.7207    8.5341   26.4157 H    0  0  0  0  0  0  0  0  0  0  0  0
    3.6103   14.0149   25.5662 H    0  0  0  0  0  0  0  0  0  0  0  0
    4.9868   13.6163   24.5747 H    0  0  0  0  0  0  0  0  0  0  0  0
    5.1138   14.9055   25.7577 H    0  0  0  0  0  0  0  0  0  0  0  0
    4.8233   13.9820   28.4238 H    0  0  0  0  0  0  0  0  0  0  0  0
    5.4808   12.4049   28.6272 H    0  0  0  0  0  0  0  0  0  0  0  0
    8.7149   13.2561   25.5761 H    0  0  0  0  0  0  0  0  0  0  0  0
    7.2742   14.1818   25.5510 H    0  0  0  0  0  0  0  0  0  0  0  0
    8.5630   15.9147   21.8230 H    0  0  0  0  0  0  0  0  0  0  0  0
    8.4442   14.2738   21.1229 H    0  0  0  0  0  0  0  0  0  0  0  0
   10.9413   13.9789   21.0905 H    0  0  0  0  0  0  0  0  0  0  0  0
   10.3456   14.6612   17.9681 H    0  0  0  0  0  0  0  0  0  0  0  0
   11.5384   14.1601   19.1858 H    0  0  0  0  0  0  0  0  0  0  0  0
   11.4571   16.8486   21.9892 H    0  0  0  0  0  0  0  0  0  0  0  0
   12.5720   15.5387   21.8089 H    0  0  0  0  0  0  0  0  0  0  0  0
   11.8432   16.0545   24.2707 H    0  0  0  0  0  0  0  0  0  0  0  0
   11.3017   14.0272   25.1101 H    0  0  0  0  0  0  0  0  0  0  0  0
   11.0024   13.4022   23.4680 H    0  0  0  0  0  0  0  0  0  0  0  0
    9.2047   15.2777   24.9570 H    0  0  0  0  0  0  0  0  0  0  0  0
 16 17  1  0  0  0  0
 15 16  1  0  0  0  0
  7 15  2  0  0  0  0
  6  7  1  0  0  0  0
  5  6  2  0  0  0  0
  4  5  1  0  0  0  0
  3  4  2  0  0  0  0
  2  3  1  0  0  0  0
  1  2  1  0  0  0  0
 29  1  1  0  0  0  0
 30  1  1  0  0  0  0
 31  1  1  0  0  0  0
 32  5  1  0  0  0  0
  8  7  1  0  0  0  0
  9  8  1  0  0  0  0
 10  8  1  0  0  0  0
 33  9  1  0  0  0  0
 34  9  1  0  0  0  0
 35  9  1  0  0  0  0
 11 10  1  0  0  0  0
 36 10  1  0  0  0  0
 37 10  1  0  0  0  0
 12 11  1  0  0  0  0
 13 11  1  0  0  0  0
 14 11  1  0  0  0  0
 38 16  1  0  0  0  0
 39 16  1  0  0  0  0
 18 17  2  0  0  0  0
 19 17  1  0  0  0  0
 20 19  1  0  0  0  0
 21 20  1  0  0  0  0
 40 20  1  0  0  0  0
 41 20  1  0  0  0  0
 22 21  1  0  0  0  0
 25 21  1  0  0  0  0
 42 21  1  0  0  0  0
 23 22  1  0  0  0  0
 24 22  2  0  0  0  0
 43 23  1  0  0  0  0
 44 23  1  0  0  0  0
 45 25  1  0  0  0  0
 46 25  1  0  0  0  0
 26 25  1  0  0  0  0
 27 26  1  0  0  0  0
 47 26  1  0  0  0  0
 48 27  1  0  0  0  0
 49 27  1  0  0  0  0
 28 27  1  0  0  0  0
 50 28  1  0  0  0  0
 15  3  1  0  0  0  0
 28 19  1  0  0  0  0
 28 26  1  0  0  0  0
M  END
>  <FittedScore>
-31.63

$$$$
