A71EV2A-x4934a_best-RMSD
  FITTED

 42 44     0  0  0  0  0  0  0999 V2000
   10.4747   14.6677   25.4863 O    0  0  0  0  0  0  0  0  0  0  0  0
   10.4494   14.9551   24.2991 C    0  0  0  0  0  0  0  0  0  0  0  0
   11.7138   15.5361   23.6517 C    0  0  0  0  0  0  0  0  0  0  0  0
   11.5433   16.1286   22.2236 C    0  0  0  0  0  0  0  0  0  0  0  0
    9.3643   14.6680   23.5014 N    0  0  0  0  0  0  0  0  0  0  0  0
    9.2773   14.9777   22.0480 C    0  0  0  0  0  0  0  0  0  0  0  0
   10.6476   15.2074   21.3530 C    0  0  0  0  0  0  0  0  0  0  0  0
   10.4644   15.7219   19.9195 C    0  0  0  0  0  0  0  0  0  0  0  0
    9.9393   16.7873   19.6382 O    0  0  0  0  0  0  0  0  0  0  0  0
   10.6740   14.8194   18.9520 N    0  0  0  0  0  0  0  0  0  0  0  0
    8.1229   14.0179   24.0167 C    0  0  0  0  0  0  0  0  0  0  0  0
    8.1735   12.4784   24.1743 C    0  0  0  0  0  0  0  0  0  0  0  0
    7.1428   11.8007   24.9160 C    0  0  0  0  0  0  0  0  0  0  0  0
    7.2441   10.3941   25.0526 C    0  0  0  0  0  0  0  0  0  0  0  0
    8.2738    9.6720   24.4470 C    0  0  0  0  0  0  0  0  0  0  0  0
    9.2666   10.3256   23.7210 C    0  0  0  0  0  0  0  0  0  0  0  0
    9.2193   11.7156   23.5904 C    0  0  0  0  0  0  0  0  0  0  0  0
    5.9268   12.4717   25.5159 C    0  0  0  0  0  0  0  0  0  0  0  0
    4.9931   13.1899   24.7161 C    0  0  0  0  0  0  0  0  0  0  0  0
    3.8604   13.7604   25.2119 N    0  0  0  0  0  0  0  0  0  0  0  0
    3.6008   13.6498   26.5469 C    0  0  0  0  0  0  0  0  0  0  0  0
    4.4461   12.9433   27.4095 C    0  0  0  0  0  0  0  0  0  0  0  0
    5.6125   12.3498   26.8960 C    0  0  0  0  0  0  0  0  0  0  0  0
   12.1063   16.3269   24.3028 H    0  0  0  0  0  0  0  0  0  0  0  0
   12.4704   14.7495   23.6230 H    0  0  0  0  0  0  0  0  0  0  0  0
   11.0963   17.1292   22.2917 H    0  0  0  0  0  0  0  0  0  0  0  0
   12.5207   16.2439   21.7526 H    0  0  0  0  0  0  0  0  0  0  0  0
    8.6502   15.8698   21.9316 H    0  0  0  0  0  0  0  0  0  0  0  0
    8.7692   14.1707   21.5063 H    0  0  0  0  0  0  0  0  0  0  0  0
   11.1459   14.2339   21.3098 H    0  0  0  0  0  0  0  0  0  0  0  0
   10.8507   13.8383   19.1781 H    0  0  0  0  0  0  0  0  0  0  0  0
   10.5675   15.1274   17.9957 H    0  0  0  0  0  0  0  0  0  0  0  0
    7.2832   14.2754   23.3709 H    0  0  0  0  0  0  0  0  0  0  0  0
    7.8756   14.4785   24.9792 H    0  0  0  0  0  0  0  0  0  0  0  0
    6.4875    9.8344   25.5961 H    0  0  0  0  0  0  0  0  0  0  0  0
    8.3017    8.5872   24.5424 H    0  0  0  0  0  0  0  0  0  0  0  0
   10.0671    9.7591   23.2526 H    0  0  0  0  0  0  0  0  0  0  0  0
   10.0099   12.1812   23.0065 H    0  0  0  0  0  0  0  0  0  0  0  0
    5.1556   13.2735   23.6444 H    0  0  0  0  0  0  0  0  0  0  0  0
    2.7001   14.1127   26.9430 H    0  0  0  0  0  0  0  0  0  0  0  0
    4.1962   12.8537   28.4667 H    0  0  0  0  0  0  0  0  0  0  0  0
    6.2734   11.8107   27.5704 H    0  0  0  0  0  0  0  0  0  0  0  0
  5 11  1  0  0  0  0
  2  5  1  0  0  0  0
  1  2  2  0  0  0  0
  3  2  1  0  0  0  0
 24  3  1  0  0  0  0
 25  3  1  0  0  0  0
  4  3  1  0  0  0  0
 26  4  1  0  0  0  0
 27  4  1  0  0  0  0
  6  5  1  0  0  0  0
 28  6  1  0  0  0  0
 29  6  1  0  0  0  0
  7  4  1  0  0  0  0
  8  7  1  0  0  0  0
 30  7  1  0  0  0  0
  9  8  2  0  0  0  0
 10  8  1  0  0  0  0
 31 10  1  0  0  0  0
 32 10  1  0  0  0  0
 33 11  1  0  0  0  0
 34 11  1  0  0  0  0
 12 11  1  0  0  0  0
 17 12  1  0  0  0  0
 13 12  2  0  0  0  0
 14 13  1  0  0  0  0
 35 14  1  0  0  0  0
 15 14  2  0  0  0  0
 36 15  1  0  0  0  0
 16 15  1  0  0  0  0
 37 16  1  0  0  0  0
 38 17  1  0  0  0  0
 18 13  1  0  0  0  0
 23 18  2  0  0  0  0
 19 18  1  0  0  0  0
 39 19  1  0  0  0  0
 20 19  2  0  0  0  0
 21 20  1  0  0  0  0
 40 21  1  0  0  0  0
 22 21  2  0  0  0  0
 41 22  1  0  0  0  0
 42 23  1  0  0  0  0
  7  6  1  0  0  0  0
 17 16  2  0  0  0  0
 23 22  1  0  0  0  0
M  END
>  <FittedScore>
-34.59

$$$$
