A71EV2A-x7259a_lowest-energy
  FITTED

 57 60     0  0  0  0  0  0  0999 V2000
    9.6043    8.6375   23.3330 C    0  0  0  0  0  0  0  0  0  0  0  0
    9.4802   10.3665   23.8874 S    0  0  0  0  0  0  0  0  0  0  0  0
    8.0308   10.4881   24.9259 C    0  0  0  0  0  0  0  0  0  0  0  0
    7.3767    9.3322   25.2181 N    0  0  0  0  0  0  0  0  0  0  0  0
    6.2847    9.4051   26.0152 C    0  0  0  0  0  0  0  0  0  0  0  0
    5.7473   10.5575   26.4743 N    0  0  0  0  0  0  0  0  0  0  0  0
    6.3464   11.7415   26.1622 C    0  0  0  0  0  0  0  0  0  0  0  0
    5.6883   12.9007   26.5785 N    0  0  0  0  0  0  0  0  0  0  0  0
    5.2346   13.9201   25.6107 C    0  0  0  0  0  0  0  0  0  0  0  0
    4.0263   14.6228   26.2457 C    0  0  0  0  0  0  0  0  0  0  0  0
    4.1571   14.3505   27.7482 C    0  0  0  0  0  0  0  0  0  0  0  0
    4.8931   12.9921   27.8236 C    0  0  0  0  0  0  0  0  0  0  0  0
    5.7816   12.9936   29.0699 C    0  0  0  0  0  0  0  0  0  0  0  0
    5.1902   12.8576   30.4446 C    0  0  0  0  0  0  0  0  0  0  0  0
    5.9962   11.7340   29.8619 C    0  0  0  0  0  0  0  0  0  0  0  0
    7.5730   11.7431   25.4210 C    0  0  0  0  0  0  0  0  0  0  0  0
    8.3776   13.0283   25.1249 C    0  0  0  0  0  0  0  0  0  0  0  0
    8.1676   13.5636   23.6929 C    0  0  0  0  0  0  0  0  0  0  0  0
    7.3348   13.0306   22.9712 O    0  0  0  0  0  0  0  0  0  0  0  0
    8.9310   14.6213   23.2355 N    0  0  0  0  0  0  0  0  0  0  0  0
    9.8285   15.4982   24.0657 C    0  0  0  0  0  0  0  0  0  0  0  0
   11.2749   15.6252   23.5132 C    0  0  0  0  0  0  0  0  0  0  0  0
   11.2879   16.0723   22.0249 C    0  0  0  0  0  0  0  0  0  0  0  0
   10.3396   15.1699   21.1824 C    0  0  0  0  0  0  0  0  0  0  0  0
   10.3005   15.6254   19.7265 C    0  0  0  0  0  0  0  0  0  0  0  0
   10.7681   14.7534   18.8142 N    0  0  0  0  0  0  0  0  0  0  0  0
    9.7436   16.6367   19.3573 O    0  0  0  0  0  0  0  0  0  0  0  0
    8.9107   15.1024   21.8137 C    0  0  0  0  0  0  0  0  0  0  0  0
    9.6954    7.9743   24.1917 H    0  0  0  0  0  0  0  0  0  0  0  0
   10.4955    8.5332   22.7095 H    0  0  0  0  0  0  0  0  0  0  0  0
    8.7258    8.3619   22.7514 H    0  0  0  0  0  0  0  0  0  0  0  0
    5.7944    8.4781   26.2916 H    0  0  0  0  0  0  0  0  0  0  0  0
    4.9545   13.4753   24.6507 H    0  0  0  0  0  0  0  0  0  0  0  0
    6.0016   14.6695   25.4098 H    0  0  0  0  0  0  0  0  0  0  0  0
    3.0924   14.2032   25.8604 H    0  0  0  0  0  0  0  0  0  0  0  0
    4.0342   15.6950   26.0338 H    0  0  0  0  0  0  0  0  0  0  0  0
    3.1750   14.2953   28.2277 H    0  0  0  0  0  0  0  0  0  0  0  0
    4.7194   15.1663   28.2159 H    0  0  0  0  0  0  0  0  0  0  0  0
    4.1278   12.2082   27.8791 H    0  0  0  0  0  0  0  0  0  0  0  0
    6.6409   13.6558   28.9796 H    0  0  0  0  0  0  0  0  0  0  0  0
    4.1144   12.7218   30.5314 H    0  0  0  0  0  0  0  0  0  0  0  0
    5.6337   13.4503   31.2380 H    0  0  0  0  0  0  0  0  0  0  0  0
    5.4575   10.8320   29.5844 H    0  0  0  0  0  0  0  0  0  0  0  0
    6.9840   11.5552   30.2769 H    0  0  0  0  0  0  0  0  0  0  0  0
    9.4399   12.8324   25.3037 H    0  0  0  0  0  0  0  0  0  0  0  0
    8.1424   13.8083   25.8543 H    0  0  0  0  0  0  0  0  0  0  0  0
    9.9097   15.1805   25.1043 H    0  0  0  0  0  0  0  0  0  0  0  0
    9.3821   16.4978   24.1180 H    0  0  0  0  0  0  0  0  0  0  0  0
   11.7937   14.6683   23.6175 H    0  0  0  0  0  0  0  0  0  0  0  0
   11.8276   16.3519   24.1154 H    0  0  0  0  0  0  0  0  0  0  0  0
   12.3081   16.0126   21.6378 H    0  0  0  0  0  0  0  0  0  0  0  0
   10.9822   17.1223   21.9583 H    0  0  0  0  0  0  0  0  0  0  0  0
   10.7472   14.1543   21.2341 H    0  0  0  0  0  0  0  0  0  0  0  0
   10.7193   14.9775   17.8266 H    0  0  0  0  0  0  0  0  0  0  0  0
   11.0042   13.8081   19.0980 H    0  0  0  0  0  0  0  0  0  0  0  0
    8.2955   14.4727   21.1671 H    0  0  0  0  0  0  0  0  0  0  0  0
    8.4341   16.0863   21.7845 H    0  0  0  0  0  0  0  0  0  0  0  0
 16 17  1  0  0  0  0
  7 16  2  0  0  0  0
  6  7  1  0  0  0  0
  5  6  2  0  0  0  0
  4  5  1  0  0  0  0
  3  4  2  0  0  0  0
  2  3  1  0  0  0  0
  1  2  1  0  0  0  0
 29  1  1  0  0  0  0
 30  1  1  0  0  0  0
 31  1  1  0  0  0  0
 32  5  1  0  0  0  0
  8  7  1  0  0  0  0
  9  8  1  0  0  0  0
 10  9  1  0  0  0  0
 33  9  1  0  0  0  0
 34  9  1  0  0  0  0
 11 10  1  0  0  0  0
 35 10  1  0  0  0  0
 36 10  1  0  0  0  0
 12 11  1  0  0  0  0
 37 11  1  0  0  0  0
 38 11  1  0  0  0  0
 13 12  1  0  0  0  0
 39 12  1  0  0  0  0
 14 13  1  0  0  0  0
 40 13  1  0  0  0  0
 15 14  1  0  0  0  0
 41 14  1  0  0  0  0
 42 14  1  0  0  0  0
 43 15  1  0  0  0  0
 44 15  1  0  0  0  0
 18 17  1  0  0  0  0
 45 17  1  0  0  0  0
 46 17  1  0  0  0  0
 19 18  2  0  0  0  0
 20 18  1  0  0  0  0
 21 20  1  0  0  0  0
 22 21  1  0  0  0  0
 47 21  1  0  0  0  0
 48 21  1  0  0  0  0
 23 22  1  0  0  0  0
 49 22  1  0  0  0  0
 50 22  1  0  0  0  0
 24 23  1  0  0  0  0
 51 23  1  0  0  0  0
 52 23  1  0  0  0  0
 25 24  1  0  0  0  0
 28 24  1  0  0  0  0
 53 24  1  0  0  0  0
 26 25  1  0  0  0  0
 27 25  2  0  0  0  0
 54 26  1  0  0  0  0
 55 26  1  0  0  0  0
 56 28  1  0  0  0  0
 57 28  1  0  0  0  0
 12  8  1  0  0  0  0
 15 13  1  0  0  0  0
 16  3  1  0  0  0  0
 28 20  1  0  0  0  0
M  END
>  <FittedScore>
-35.79

$$$$
