A71EV2A-x5213b_lowest-energy
  FITTED

 34 35     0  0  0  0  0  0  0999 V2000
    9.5286    8.3957   23.3833 CL   0  0  0  0  0  0  0  0  0  0  0  0
    8.6312    9.4743   24.3764 C    0  0  0  0  0  0  0  0  0  0  0  0
    7.6153    8.9853   25.1469 N    0  0  0  0  0  0  0  0  0  0  0  0
    6.9523    9.8645   25.9507 C    0  0  0  0  0  0  0  0  0  0  0  0
    7.2850   11.2279   25.9649 C    0  0  0  0  0  0  0  0  0  0  0  0
    9.0199   10.7729   24.3408 N    0  0  0  0  0  0  0  0  0  0  0  0
    8.3340   11.6534   25.1240 C    0  0  0  0  0  0  0  0  0  0  0  0
    8.7146   13.1206   25.0063 C    0  0  0  0  0  0  0  0  0  0  0  0
    8.3633   13.7272   23.6343 C    0  0  0  0  0  0  0  0  0  0  0  0
    7.5710   13.1518   22.8991 O    0  0  0  0  0  0  0  0  0  0  0  0
    9.0179   14.8667   23.2194 N    0  0  0  0  0  0  0  0  0  0  0  0
    9.9682   15.7169   24.0247 C    0  0  0  0  0  0  0  0  0  0  0  0
   11.4102   15.7280   23.4302 C    0  0  0  0  0  0  0  0  0  0  0  0
   11.4044   16.1626   21.9381 C    0  0  0  0  0  0  0  0  0  0  0  0
    8.9490   15.3846   21.8184 C    0  0  0  0  0  0  0  0  0  0  0  0
   10.3535   15.3344   21.1396 C    0  0  0  0  0  0  0  0  0  0  0  0
   10.3060   15.7668   19.6773 C    0  0  0  0  0  0  0  0  0  0  0  0
    9.8918   16.8475   19.3019 O    0  0  0  0  0  0  0  0  0  0  0  0
   10.6886   14.8189   18.7972 N    0  0  0  0  0  0  0  0  0  0  0  0
    6.1463    9.5081   26.5838 H    0  0  0  0  0  0  0  0  0  0  0  0
    6.7422   11.9263   26.5975 H    0  0  0  0  0  0  0  0  0  0  0  0
    8.2369   13.7128   25.7908 H    0  0  0  0  0  0  0  0  0  0  0  0
    9.7924   13.1717   25.1864 H    0  0  0  0  0  0  0  0  0  0  0  0
    9.5898   16.7441   24.0503 H    0  0  0  0  0  0  0  0  0  0  0  0
   10.0315   15.4382   25.0757 H    0  0  0  0  0  0  0  0  0  0  0  0
   12.0425   16.4114   24.0007 H    0  0  0  0  0  0  0  0  0  0  0  0
   11.8577   14.7328   23.5205 H    0  0  0  0  0  0  0  0  0  0  0  0
   11.1781   17.2314   21.8623 H    0  0  0  0  0  0  0  0  0  0  0  0
   12.4017   16.0142   21.5066 H    0  0  0  0  0  0  0  0  0  0  0  0
    8.5645   16.4072   21.8311 H    0  0  0  0  0  0  0  0  0  0  0  0
    8.2360   14.8424   21.1923 H    0  0  0  0  0  0  0  0  0  0  0  0
   10.6808   14.2867   21.1949 H    0  0  0  0  0  0  0  0  0  0  0  0
   10.6469   15.0107   17.8042 H    0  0  0  0  0  0  0  0  0  0  0  0
   10.8846   13.8698   19.1120 H    0  0  0  0  0  0  0  0  0  0  0  0
  9 11  1  0  0  0  0
  8  9  1  0  0  0  0
  7  8  1  0  0  0  0
  5  7  1  0  0  0  0
  4  5  2  0  0  0  0
  3  4  1  0  0  0  0
  2  3  2  0  0  0  0
  1  2  1  0  0  0  0
 20  4  1  0  0  0  0
 21  5  1  0  0  0  0
  6  2  1  0  0  0  0
 22  8  1  0  0  0  0
 23  8  1  0  0  0  0
 10  9  2  0  0  0  0
 12 11  1  0  0  0  0
 24 12  1  0  0  0  0
 25 12  1  0  0  0  0
 13 12  1  0  0  0  0
 26 13  1  0  0  0  0
 27 13  1  0  0  0  0
 14 13  1  0  0  0  0
 28 14  1  0  0  0  0
 29 14  1  0  0  0  0
 15 11  1  0  0  0  0
 30 15  1  0  0  0  0
 31 15  1  0  0  0  0
 16 14  1  0  0  0  0
 17 16  1  0  0  0  0
 32 16  1  0  0  0  0
 18 17  2  0  0  0  0
 19 17  1  0  0  0  0
 33 19  1  0  0  0  0
 34 19  1  0  0  0  0
  7  6  2  0  0  0  0
 16 15  1  0  0  0  0
M  END
>  <FittedScore>
-34.44

$$$$
