A71EV2A-x4283b_lowest-energy
  FITTED

 39 40     0  0  0  0  0  0  0999 V2000
    9.8481   16.7524   19.3510 O    0  0  0  0  0  0  0  0  0  0  0  0
   10.3994   15.7175   19.6803 C    0  0  0  0  0  0  0  0  0  0  0  0
   10.7315   14.7930   18.7577 N    0  0  0  0  0  0  0  0  0  0  0  0
   10.5123   15.2367   21.1226 C    0  0  0  0  0  0  0  0  0  0  0  0
   11.4102   16.1746   21.9784 C    0  0  0  0  0  0  0  0  0  0  0  0
   11.4754   15.6534   23.4432 C    0  0  0  0  0  0  0  0  0  0  0  0
   10.0562   15.3948   24.0278 C    0  0  0  0  0  0  0  0  0  0  0  0
    9.1071   15.0377   21.7815 C    0  0  0  0  0  0  0  0  0  0  0  0
    9.1886   14.5009   23.1805 N    0  0  0  0  0  0  0  0  0  0  0  0
    8.4113   13.4505   23.6246 C    0  0  0  0  0  0  0  0  0  0  0  0
    7.4826   13.0227   22.9609 O    0  0  0  0  0  0  0  0  0  0  0  0
    8.6931   12.8607   25.0153 C    0  0  0  0  0  0  0  0  0  0  0  0
    7.8505   11.6318   25.3831 C    0  0  0  0  0  0  0  0  0  0  0  0
    8.1586   10.3466   24.8716 C    0  0  0  0  0  0  0  0  0  0  0  0
    9.2380   10.1901   24.0079 O    0  0  0  0  0  0  0  0  0  0  0  0
    9.6077    8.9471   23.3592 C    0  0  0  0  0  0  0  0  0  0  0  0
    6.8023   11.8340   26.2423 N    0  0  0  0  0  0  0  0  0  0  0  0
    6.0492   10.7732   26.6322 C    0  0  0  0  0  0  0  0  0  0  0  0
    6.2907    9.4792   26.1571 C    0  0  0  0  0  0  0  0  0  0  0  0
    7.3538    9.2650   25.2737 C    0  0  0  0  0  0  0  0  0  0  0  0
   10.7183   15.0399   17.7764 H    0  0  0  0  0  0  0  0  0  0  0  0
   10.9068   13.8274   19.0277 H    0  0  0  0  0  0  0  0  0  0  0  0
   10.9998   14.2500   21.1335 H    0  0  0  0  0  0  0  0  0  0  0  0
   12.4211   16.2196   21.5597 H    0  0  0  0  0  0  0  0  0  0  0  0
   11.0233   17.1967   21.9708 H    0  0  0  0  0  0  0  0  0  0  0  0
   12.0529   14.7249   23.4782 H    0  0  0  0  0  0  0  0  0  0  0  0
   12.0031   16.3802   24.0667 H    0  0  0  0  0  0  0  0  0  0  0  0
   10.2030   15.0245   25.0382 H    0  0  0  0  0  0  0  0  0  0  0  0
    9.5438   16.3550   24.1557 H    0  0  0  0  0  0  0  0  0  0  0  0
    8.5257   14.3797   21.1265 H    0  0  0  0  0  0  0  0  0  0  0  0
    8.5566   15.9873   21.7991 H    0  0  0  0  0  0  0  0  0  0  0  0
    9.7514   12.5875   25.1008 H    0  0  0  0  0  0  0  0  0  0  0  0
    8.5238   13.6348   25.7703 H    0  0  0  0  0  0  0  0  0  0  0  0
    9.8900    8.1941   24.0992 H    0  0  0  0  0  0  0  0  0  0  0  0
   10.4614    9.1432   22.7132 H    0  0  0  0  0  0  0  0  0  0  0  0
    8.7806    8.5758   22.7463 H    0  0  0  0  0  0  0  0  0  0  0  0
    5.2403   10.9310   27.3350 H    0  0  0  0  0  0  0  0  0  0  0  0
    5.6752    8.6430   26.4764 H    0  0  0  0  0  0  0  0  0  0  0  0
    7.5351    8.2579   24.9188 H    0  0  0  0  0  0  0  0  0  0  0  0
  9 10  1  0  0  0  0
  7  9  1  0  0  0  0
  6  7  1  0  0  0  0
  5  6  1  0  0  0  0
  4  5  1  0  0  0  0
  2  4  1  0  0  0  0
  1  2  2  0  0  0  0
  3  2  1  0  0  0  0
 21  3  1  0  0  0  0
 22  3  1  0  0  0  0
 23  4  1  0  0  0  0
 24  5  1  0  0  0  0
 25  5  1  0  0  0  0
 26  6  1  0  0  0  0
 27  6  1  0  0  0  0
 28  7  1  0  0  0  0
 29  7  1  0  0  0  0
  8  4  1  0  0  0  0
 30  8  1  0  0  0  0
 31  8  1  0  0  0  0
 11 10  2  0  0  0  0
 12 10  1  0  0  0  0
 32 12  1  0  0  0  0
 33 12  1  0  0  0  0
 13 12  1  0  0  0  0
 14 13  1  0  0  0  0
 20 14  2  0  0  0  0
 15 14  1  0  0  0  0
 16 15  1  0  0  0  0
 34 16  1  0  0  0  0
 35 16  1  0  0  0  0
 36 16  1  0  0  0  0
 17 13  2  0  0  0  0
 18 17  1  0  0  0  0
 37 18  1  0  0  0  0
 19 18  2  0  0  0  0
 38 19  1  0  0  0  0
 39 20  1  0  0  0  0
  9  8  1  0  0  0  0
 20 19  1  0  0  0  0
M  END
>  <FittedScore>
-32.45

$$$$
