A71EV2A-x4283b_best-RMSD
  FITTED

 39 40     0  0  0  0  0  0  0999 V2000
    9.9445   16.7770   19.3978 O    0  0  0  0  0  0  0  0  0  0  0  0
   10.4646   15.7255   19.7298 C    0  0  0  0  0  0  0  0  0  0  0  0
   10.7636   14.7902   18.8099 N    0  0  0  0  0  0  0  0  0  0  0  0
   10.6005   15.2523   21.1753 C    0  0  0  0  0  0  0  0  0  0  0  0
   11.5613   16.1640   21.9844 C    0  0  0  0  0  0  0  0  0  0  0  0
   11.6744   15.6473   23.4446 C    0  0  0  0  0  0  0  0  0  0  0  0
   10.2905   15.3502   24.0950 C    0  0  0  0  0  0  0  0  0  0  0  0
    9.2175   15.1179   21.8858 C    0  0  0  0  0  0  0  0  0  0  0  0
    9.3435   14.5209   23.2575 N    0  0  0  0  0  0  0  0  0  0  0  0
    8.5436   13.4814   23.6986 C    0  0  0  0  0  0  0  0  0  0  0  0
    7.5680   13.0988   23.0614 O    0  0  0  0  0  0  0  0  0  0  0  0
    8.8861   12.8292   25.0487 C    0  0  0  0  0  0  0  0  0  0  0  0
    8.0094   11.6330   25.4353 C    0  0  0  0  0  0  0  0  0  0  0  0
    8.2801   10.3227   24.9695 C    0  0  0  0  0  0  0  0  0  0  0  0
    9.4001   10.0917   24.1661 O    0  0  0  0  0  0  0  0  0  0  0  0
    9.6792    8.8553   23.4599 C    0  0  0  0  0  0  0  0  0  0  0  0
    6.9386   11.9023   26.2399 N    0  0  0  0  0  0  0  0  0  0  0  0
    6.1105   10.8927   26.6158 C    0  0  0  0  0  0  0  0  0  0  0  0
    6.3056    9.5777   26.1835 C    0  0  0  0  0  0  0  0  0  0  0  0
    7.3951    9.2927   25.3515 C    0  0  0  0  0  0  0  0  0  0  0  0
   10.9448   13.8320   19.1025 H    0  0  0  0  0  0  0  0  0  0  0  0
   10.6780   14.9994   17.8243 H    0  0  0  0  0  0  0  0  0  0  0  0
   11.0501   14.2505   21.1837 H    0  0  0  0  0  0  0  0  0  0  0  0
   12.5566   16.1653   21.5266 H    0  0  0  0  0  0  0  0  0  0  0  0
   11.2096   17.2023   21.9826 H    0  0  0  0  0  0  0  0  0  0  0  0
   12.2815   14.7331   23.4580 H    0  0  0  0  0  0  0  0  0  0  0  0
   12.2129   16.3884   24.0437 H    0  0  0  0  0  0  0  0  0  0  0  0
   10.5234   14.8976   25.0565 H    0  0  0  0  0  0  0  0  0  0  0  0
    9.7971   16.2967   24.3372 H    0  0  0  0  0  0  0  0  0  0  0  0
    8.5694   14.5229   21.2391 H    0  0  0  0  0  0  0  0  0  0  0  0
    8.7374   16.0987   21.9649 H    0  0  0  0  0  0  0  0  0  0  0  0
    9.9345   12.5125   25.0492 H    0  0  0  0  0  0  0  0  0  0  0  0
    8.8127   13.5852   25.8376 H    0  0  0  0  0  0  0  0  0  0  0  0
    9.8497    8.0403   24.1738 H    0  0  0  0  0  0  0  0  0  0  0  0
   10.5840    8.9869   22.8569 H    0  0  0  0  0  0  0  0  0  0  0  0
    8.8423    8.6073   22.7967 H    0  0  0  0  0  0  0  0  0  0  0  0
    5.2699   11.1149   27.2662 H    0  0  0  0  0  0  0  0  0  0  0  0
    5.6210    8.7930   26.4846 H    0  0  0  0  0  0  0  0  0  0  0  0
    7.5357    8.2709   25.0201 H    0  0  0  0  0  0  0  0  0  0  0  0
  9 10  1  0  0  0  0
  7  9  1  0  0  0  0
  6  7  1  0  0  0  0
  5  6  1  0  0  0  0
  4  5  1  0  0  0  0
  2  4  1  0  0  0  0
  1  2  2  0  0  0  0
  3  2  1  0  0  0  0
 21  3  1  0  0  0  0
 22  3  1  0  0  0  0
 23  4  1  0  0  0  0
 24  5  1  0  0  0  0
 25  5  1  0  0  0  0
 26  6  1  0  0  0  0
 27  6  1  0  0  0  0
 28  7  1  0  0  0  0
 29  7  1  0  0  0  0
  8  4  1  0  0  0  0
 30  8  1  0  0  0  0
 31  8  1  0  0  0  0
 11 10  2  0  0  0  0
 12 10  1  0  0  0  0
 32 12  1  0  0  0  0
 33 12  1  0  0  0  0
 13 12  1  0  0  0  0
 14 13  1  0  0  0  0
 20 14  2  0  0  0  0
 15 14  1  0  0  0  0
 16 15  1  0  0  0  0
 34 16  1  0  0  0  0
 35 16  1  0  0  0  0
 36 16  1  0  0  0  0
 17 13  2  0  0  0  0
 18 17  1  0  0  0  0
 37 18  1  0  0  0  0
 19 18  2  0  0  0  0
 38 19  1  0  0  0  0
 39 20  1  0  0  0  0
  9  8  1  0  0  0  0
 20 19  1  0  0  0  0
M  END
>  <FittedScore>
-31.62

$$$$
