A71EV2A-x6802a_lowest-energy
  FITTED

 61 64     0  0  0  0  0  0  0999 V2000
    9.5050    8.5868   23.3923 C    0  0  0  0  0  0  0  0  0  0  0  0
    9.4949   10.3056   23.9837 S    0  0  0  0  0  0  0  0  0  0  0  0
    8.0475   10.4888   25.0244 C    0  0  0  0  0  0  0  0  0  0  0  0
    7.3649    9.3616   25.3793 N    0  0  0  0  0  0  0  0  0  0  0  0
    6.2838    9.4968   26.1908 C    0  0  0  0  0  0  0  0  0  0  0  0
    5.7976   10.6826   26.6469 N    0  0  0  0  0  0  0  0  0  0  0  0
    6.4423   11.8226   26.2739 C    0  0  0  0  0  0  0  0  0  0  0  0
    5.8655   12.9977   26.7148 N    0  0  0  0  0  0  0  0  0  0  0  0
    5.0677   13.8718   25.8206 C    0  0  0  0  0  0  0  0  0  0  0  0
    5.6197   15.3281   25.8041 C    0  0  0  0  0  0  0  0  0  0  0  0
    5.9086   15.8363   27.1790 N    0  0  0  0  0  0  0  0  0  0  0  0
    5.7139   17.1702   27.4988 C    0  0  0  0  0  0  0  0  0  0  0  0
    6.7470   17.9315   28.0943 C    0  0  0  0  0  0  0  0  0  0  0  0
    6.5077   19.2715   28.4362 C    0  0  0  0  0  0  0  0  0  0  0  0
    5.2506   19.8295   28.1642 C    0  0  0  0  0  0  0  0  0  0  0  0
    4.2651   19.0299   27.5600 C    0  0  0  0  0  0  0  0  0  0  0  0
    4.4896   17.7272   27.2371 N    0  0  0  0  0  0  0  0  0  0  0  0
    6.6104   14.9162   28.1262 C    0  0  0  0  0  0  0  0  0  0  0  0
    6.0290   13.4748   28.1070 C    0  0  0  0  0  0  0  0  0  0  0  0
    7.6214   11.7717   25.4720 C    0  0  0  0  0  0  0  0  0  0  0  0
    8.4152   13.0402   25.1010 C    0  0  0  0  0  0  0  0  0  0  0  0
    8.1115   13.6141   23.7083 C    0  0  0  0  0  0  0  0  0  0  0  0
    7.2535   13.0942   23.0107 O    0  0  0  0  0  0  0  0  0  0  0  0
    8.8479   14.6956   23.2650 N    0  0  0  0  0  0  0  0  0  0  0  0
    9.8748   15.4683   24.0532 C    0  0  0  0  0  0  0  0  0  0  0  0
   11.3013   15.3668   23.4414 C    0  0  0  0  0  0  0  0  0  0  0  0
   11.3174   15.7978   21.9527 C    0  0  0  0  0  0  0  0  0  0  0  0
   10.1836   15.0929   21.1477 C    0  0  0  0  0  0  0  0  0  0  0  0
   10.1607   15.6277   19.7215 C    0  0  0  0  0  0  0  0  0  0  0  0
   10.7684   14.8502   18.8073 N    0  0  0  0  0  0  0  0  0  0  0  0
    9.6280   16.6704   19.3974 O    0  0  0  0  0  0  0  0  0  0  0  0
    8.7962   15.2116   21.8617 C    0  0  0  0  0  0  0  0  0  0  0  0
    8.5875    8.3756   22.8382 H    0  0  0  0  0  0  0  0  0  0  0  0
    9.5935    7.9068   24.2392 H    0  0  0  0  0  0  0  0  0  0  0  0
   10.3626    8.4364   22.7280 H    0  0  0  0  0  0  0  0  0  0  0  0
    5.7676    8.5888   26.4906 H    0  0  0  0  0  0  0  0  0  0  0  0
    4.0251   13.8944   26.1531 H    0  0  0  0  0  0  0  0  0  0  0  0
    5.0429   13.4885   24.7970 H    0  0  0  0  0  0  0  0  0  0  0  0
    4.8892   15.9457   25.2735 H    0  0  0  0  0  0  0  0  0  0  0  0
    6.5194   15.3861   25.1951 H    0  0  0  0  0  0  0  0  0  0  0  0
    7.7238   17.4998   28.2999 H    0  0  0  0  0  0  0  0  0  0  0  0
    7.2839   19.8665   28.9094 H    0  0  0  0  0  0  0  0  0  0  0  0
    5.0429   20.8672   28.4126 H    0  0  0  0  0  0  0  0  0  0  0  0
    3.2956   19.4661   27.3401 H    0  0  0  0  0  0  0  0  0  0  0  0
    6.5378   15.2782   29.1580 H    0  0  0  0  0  0  0  0  0  0  0  0
    7.6781   14.8788   27.8997 H    0  0  0  0  0  0  0  0  0  0  0  0
    5.0666   13.4707   28.6304 H    0  0  0  0  0  0  0  0  0  0  0  0
    6.6928   12.8247   28.6848 H    0  0  0  0  0  0  0  0  0  0  0  0
    9.4849   12.8351   25.1903 H    0  0  0  0  0  0  0  0  0  0  0  0
    8.2451   13.8093   25.8500 H    0  0  0  0  0  0  0  0  0  0  0  0
    9.9472   15.1749   25.1001 H    0  0  0  0  0  0  0  0  0  0  0  0
    9.5719   16.5200   24.0927 H    0  0  0  0  0  0  0  0  0  0  0  0
   11.6593   14.3355   23.5287 H    0  0  0  0  0  0  0  0  0  0  0  0
   11.9913   15.9932   24.0121 H    0  0  0  0  0  0  0  0  0  0  0  0
   12.2867   15.5415   21.5173 H    0  0  0  0  0  0  0  0  0  0  0  0
   11.2174   16.8862   21.8873 H    0  0  0  0  0  0  0  0  0  0  0  0
   10.4220   14.0217   21.1223 H    0  0  0  0  0  0  0  0  0  0  0  0
   11.0980   13.9304   19.0730 H    0  0  0  0  0  0  0  0  0  0  0  0
   10.7214   15.0964   17.8308 H    0  0  0  0  0  0  0  0  0  0  0  0
    8.0554   14.6925   21.2486 H    0  0  0  0  0  0  0  0  0  0  0  0
    8.4613   16.2537   21.8841 H    0  0  0  0  0  0  0  0  0  0  0  0
 21 22  1  0  0  0  0
 20 21  1  0  0  0  0
  7 20  2  0  0  0  0
  6  7  1  0  0  0  0
  5  6  2  0  0  0  0
  4  5  1  0  0  0  0
  3  4  2  0  0  0  0
  2  3  1  0  0  0  0
  1  2  1  0  0  0  0
 33  1  1  0  0  0  0
 34  1  1  0  0  0  0
 35  1  1  0  0  0  0
 36  5  1  0  0  0  0
  8  7  1  0  0  0  0
  9  8  1  0  0  0  0
 10  9  1  0  0  0  0
 37  9  1  0  0  0  0
 38  9  1  0  0  0  0
 11 10  1  0  0  0  0
 39 10  1  0  0  0  0
 40 10  1  0  0  0  0
 12 11  1  0  0  0  0
 18 11  1  0  0  0  0
 13 12  2  0  0  0  0
 14 13  1  0  0  0  0
 41 13  1  0  0  0  0
 15 14  2  0  0  0  0
 42 14  1  0  0  0  0
 16 15  1  0  0  0  0
 43 15  1  0  0  0  0
 17 16  2  0  0  0  0
 44 16  1  0  0  0  0
 19 18  1  0  0  0  0
 45 18  1  0  0  0  0
 46 18  1  0  0  0  0
 47 19  1  0  0  0  0
 48 19  1  0  0  0  0
 49 21  1  0  0  0  0
 50 21  1  0  0  0  0
 23 22  2  0  0  0  0
 24 22  1  0  0  0  0
 25 24  1  0  0  0  0
 26 25  1  0  0  0  0
 51 25  1  0  0  0  0
 52 25  1  0  0  0  0
 27 26  1  0  0  0  0
 53 26  1  0  0  0  0
 54 26  1  0  0  0  0
 28 27  1  0  0  0  0
 55 27  1  0  0  0  0
 56 27  1  0  0  0  0
 29 28  1  0  0  0  0
 32 28  1  0  0  0  0
 57 28  1  0  0  0  0
 30 29  1  0  0  0  0
 31 29  2  0  0  0  0
 58 30  1  0  0  0  0
 59 30  1  0  0  0  0
 60 32  1  0  0  0  0
 61 32  1  0  0  0  0
 17 12  1  0  0  0  0
 19  8  1  0  0  0  0
 20  3  1  0  0  0  0
 32 24  1  0  0  0  0
M  END
>  <FittedScore>
-33.20

$$$$
