A71EV2A-x6802a_best-RMSD
  FITTED

 61 64     0  0  0  0  0  0  0999 V2000
    9.6622    8.6332   23.4425 C    0  0  0  0  0  0  0  0  0  0  0  0
    9.5094   10.3848   23.9181 S    0  0  0  0  0  0  0  0  0  0  0  0
    8.0653   10.5054   24.9744 C    0  0  0  0  0  0  0  0  0  0  0  0
    7.4154    9.3497   25.2972 N    0  0  0  0  0  0  0  0  0  0  0  0
    6.3358    9.4254   26.1170 C    0  0  0  0  0  0  0  0  0  0  0  0
    5.8260   10.5783   26.6208 N    0  0  0  0  0  0  0  0  0  0  0  0
    6.4406   11.7472   26.2864 C    0  0  0  0  0  0  0  0  0  0  0  0
    5.8481   12.8916   26.7809 N    0  0  0  0  0  0  0  0  0  0  0  0
    5.8555   13.2200   28.2295 C    0  0  0  0  0  0  0  0  0  0  0  0
    4.4059   13.4222   28.7675 C    0  0  0  0  0  0  0  0  0  0  0  0
    3.6274   14.3405   27.8811 N    0  0  0  0  0  0  0  0  0  0  0  0
    2.8858   15.4099   28.3728 C    0  0  0  0  0  0  0  0  0  0  0  0
    2.8554   16.6526   27.6900 C    0  0  0  0  0  0  0  0  0  0  0  0
    2.0839   17.7085   28.2040 C    0  0  0  0  0  0  0  0  0  0  0  0
    1.3696   17.5126   29.3965 C    0  0  0  0  0  0  0  0  0  0  0  0
    1.4420   16.2657   30.0376 C    0  0  0  0  0  0  0  0  0  0  0  0
    2.1788   15.2343   29.5345 N    0  0  0  0  0  0  0  0  0  0  0  0
    3.6164   13.9453   26.4407 C    0  0  0  0  0  0  0  0  0  0  0  0
    5.0708   13.8101   25.9082 C    0  0  0  0  0  0  0  0  0  0  0  0
    7.6044   11.7623   25.4630 C    0  0  0  0  0  0  0  0  0  0  0  0
    8.3405   13.0753   25.1207 C    0  0  0  0  0  0  0  0  0  0  0  0
    8.0448   13.6440   23.7205 C    0  0  0  0  0  0  0  0  0  0  0  0
    7.2290   13.0930   22.9955 O    0  0  0  0  0  0  0  0  0  0  0  0
    8.7785   14.7268   23.2781 N    0  0  0  0  0  0  0  0  0  0  0  0
    9.6889   15.5924   24.1121 C    0  0  0  0  0  0  0  0  0  0  0  0
   11.1453   15.6514   23.5776 C    0  0  0  0  0  0  0  0  0  0  0  0
   11.1809   16.0970   22.0903 C    0  0  0  0  0  0  0  0  0  0  0  0
   10.2281   15.2068   21.2359 C    0  0  0  0  0  0  0  0  0  0  0  0
   10.2376   15.6475   19.7744 C    0  0  0  0  0  0  0  0  0  0  0  0
   10.7768   14.7819   18.8915 N    0  0  0  0  0  0  0  0  0  0  0  0
    9.6742   16.6521   19.3874 O    0  0  0  0  0  0  0  0  0  0  0  0
    8.7869   15.1917   21.8505 C    0  0  0  0  0  0  0  0  0  0  0  0
    8.7813    8.3175   22.8804 H    0  0  0  0  0  0  0  0  0  0  0  0
    9.7707    8.0129   24.3324 H    0  0  0  0  0  0  0  0  0  0  0  0
   10.5456    8.4996   22.8146 H    0  0  0  0  0  0  0  0  0  0  0  0
    5.8422    8.4945   26.3855 H    0  0  0  0  0  0  0  0  0  0  0  0
    6.4310   14.1336   28.3992 H    0  0  0  0  0  0  0  0  0  0  0  0
    6.3454   12.4443   28.8243 H    0  0  0  0  0  0  0  0  0  0  0  0
    4.4843   13.7919   29.7942 H    0  0  0  0  0  0  0  0  0  0  0  0
    3.9034   12.4527   28.8378 H    0  0  0  0  0  0  0  0  0  0  0  0
    3.4219   16.8107   26.7729 H    0  0  0  0  0  0  0  0  0  0  0  0
    2.0425   18.6652   27.6877 H    0  0  0  0  0  0  0  0  0  0  0  0
    0.7710   18.3168   29.8196 H    0  0  0  0  0  0  0  0  0  0  0  0
    0.8922   16.1171   30.9643 H    0  0  0  0  0  0  0  0  0  0  0  0
    3.0700   14.6419   25.8002 H    0  0  0  0  0  0  0  0  0  0  0  0
    3.0992   12.9907   26.3157 H    0  0  0  0  0  0  0  0  0  0  0  0
    5.5372   14.7986   25.8760 H    0  0  0  0  0  0  0  0  0  0  0  0
    5.0349   13.4565   24.8738 H    0  0  0  0  0  0  0  0  0  0  0  0
    9.4134   12.9148   25.2285 H    0  0  0  0  0  0  0  0  0  0  0  0
    8.1174   13.8370   25.8676 H    0  0  0  0  0  0  0  0  0  0  0  0
    9.7386   15.3025   25.1616 H    0  0  0  0  0  0  0  0  0  0  0  0
    9.2823   16.6086   24.1369 H    0  0  0  0  0  0  0  0  0  0  0  0
   11.6143   14.6682   23.6849 H    0  0  0  0  0  0  0  0  0  0  0  0
   11.7310   16.3474   24.1825 H    0  0  0  0  0  0  0  0  0  0  0  0
   12.2035   16.0315   21.7103 H    0  0  0  0  0  0  0  0  0  0  0  0
   10.8805   17.1503   22.0192 H    0  0  0  0  0  0  0  0  0  0  0  0
   10.6093   14.1829   21.2966 H    0  0  0  0  0  0  0  0  0  0  0  0
   10.7999   15.0108   17.9019 H    0  0  0  0  0  0  0  0  0  0  0  0
   11.0108   13.8372   19.1958 H    0  0  0  0  0  0  0  0  0  0  0  0
    8.1516   14.5771   21.2061 H    0  0  0  0  0  0  0  0  0  0  0  0
    8.3466   16.1959   21.8121 H    0  0  0  0  0  0  0  0  0  0  0  0
 21 22  1  0  0  0  0
 20 21  1  0  0  0  0
  7 20  2  0  0  0  0
  6  7  1  0  0  0  0
  5  6  2  0  0  0  0
  4  5  1  0  0  0  0
  3  4  2  0  0  0  0
  2  3  1  0  0  0  0
  1  2  1  0  0  0  0
 33  1  1  0  0  0  0
 34  1  1  0  0  0  0
 35  1  1  0  0  0  0
 36  5  1  0  0  0  0
  8  7  1  0  0  0  0
  9  8  1  0  0  0  0
 10  9  1  0  0  0  0
 37  9  1  0  0  0  0
 38  9  1  0  0  0  0
 11 10  1  0  0  0  0
 39 10  1  0  0  0  0
 40 10  1  0  0  0  0
 12 11  1  0  0  0  0
 18 11  1  0  0  0  0
 13 12  2  0  0  0  0
 14 13  1  0  0  0  0
 41 13  1  0  0  0  0
 15 14  2  0  0  0  0
 42 14  1  0  0  0  0
 16 15  1  0  0  0  0
 43 15  1  0  0  0  0
 17 16  2  0  0  0  0
 44 16  1  0  0  0  0
 19 18  1  0  0  0  0
 45 18  1  0  0  0  0
 46 18  1  0  0  0  0
 47 19  1  0  0  0  0
 48 19  1  0  0  0  0
 49 21  1  0  0  0  0
 50 21  1  0  0  0  0
 23 22  2  0  0  0  0
 24 22  1  0  0  0  0
 25 24  1  0  0  0  0
 26 25  1  0  0  0  0
 51 25  1  0  0  0  0
 52 25  1  0  0  0  0
 27 26  1  0  0  0  0
 53 26  1  0  0  0  0
 54 26  1  0  0  0  0
 28 27  1  0  0  0  0
 55 27  1  0  0  0  0
 56 27  1  0  0  0  0
 29 28  1  0  0  0  0
 32 28  1  0  0  0  0
 57 28  1  0  0  0  0
 30 29  1  0  0  0  0
 31 29  2  0  0  0  0
 58 30  1  0  0  0  0
 59 30  1  0  0  0  0
 60 32  1  0  0  0  0
 61 32  1  0  0  0  0
 17 12  1  0  0  0  0
 19  8  1  0  0  0  0
 20  3  1  0  0  0  0
 32 24  1  0  0  0  0
M  END
>  <FittedScore>
-33.36

$$$$
