A71EV2A-x5777a_best-RMSD
  FITTED

 42 44     0  0  0  0  0  0  0999 V2000
   12.4037   16.2743   21.5312 C    0  0  0  0  0  0  0  0  0  0  0  0
   10.9712   16.1664   22.1157 C    0  0  0  0  0  0  0  0  0  0  0  0
   10.9933   15.5363   23.5387 C    0  0  0  0  0  0  0  0  0  0  0  0
    9.6098   15.2350   24.1274 C    0  0  0  0  0  0  0  0  0  0  0  0
    9.5337   14.8702   25.2891 O    0  0  0  0  0  0  0  0  0  0  0  0
    8.5041   15.2502   23.3069 N    0  0  0  0  0  0  0  0  0  0  0  0
    7.1188   15.0094   23.8074 C    0  0  0  0  0  0  0  0  0  0  0  0
    6.8850   13.5794   24.3081 C    0  0  0  0  0  0  0  0  0  0  0  0
    5.8573   13.3592   25.2632 C    0  0  0  0  0  0  0  0  0  0  0  0
    5.5838   12.0658   25.7516 C    0  0  0  0  0  0  0  0  0  0  0  0
    6.3686   11.0209   25.2687 C    0  0  0  0  0  0  0  0  0  0  0  0
    6.3018    9.5709   25.4747 C    0  0  0  0  0  0  0  0  0  0  0  0
    7.2381    9.0301   24.7577 N    0  0  0  0  0  0  0  0  0  0  0  0
    7.9326   10.0140   24.1114 N    0  0  0  0  0  0  0  0  0  0  0  0
    9.1997    9.7328   23.4175 C    0  0  0  0  0  0  0  0  0  0  0  0
    7.3834   11.2265   24.3700 C    0  0  0  0  0  0  0  0  0  0  0  0
    7.6611   12.4872   23.8518 C    0  0  0  0  0  0  0  0  0  0  0  0
    8.5626   15.3976   21.8245 C    0  0  0  0  0  0  0  0  0  0  0  0
    9.9963   15.3318   21.2278 C    0  0  0  0  0  0  0  0  0  0  0  0
   10.0139   15.7512   19.7588 C    0  0  0  0  0  0  0  0  0  0  0  0
   10.5017   14.8212   18.9058 N    0  0  0  0  0  0  0  0  0  0  0  0
    9.6242   16.8340   19.3613 O    0  0  0  0  0  0  0  0  0  0  0  0
   13.0957   16.6996   22.2599 H    0  0  0  0  0  0  0  0  0  0  0  0
   12.4239   16.9370   20.6578 H    0  0  0  0  0  0  0  0  0  0  0  0
   12.7900   15.2987   21.2187 H    0  0  0  0  0  0  0  0  0  0  0  0
   10.5777   17.1859   22.1932 H    0  0  0  0  0  0  0  0  0  0  0  0
   11.5215   16.2169   24.2104 H    0  0  0  0  0  0  0  0  0  0  0  0
   11.5737   14.6059   23.5159 H    0  0  0  0  0  0  0  0  0  0  0  0
    6.3596   15.2468   23.0594 H    0  0  0  0  0  0  0  0  0  0  0  0
    6.9478   15.7114   24.6274 H    0  0  0  0  0  0  0  0  0  0  0  0
    5.2559   14.1903   25.6185 H    0  0  0  0  0  0  0  0  0  0  0  0
    4.7791   11.8857   26.4613 H    0  0  0  0  0  0  0  0  0  0  0  0
    5.6022    9.0091   26.0883 H    0  0  0  0  0  0  0  0  0  0  0  0
    9.6135    8.7520   23.6640 H    0  0  0  0  0  0  0  0  0  0  0  0
    9.9768   10.4641   23.6664 H    0  0  0  0  0  0  0  0  0  0  0  0
    9.0622    9.7753   22.3312 H    0  0  0  0  0  0  0  0  0  0  0  0
    8.4486   12.5978   23.1106 H    0  0  0  0  0  0  0  0  0  0  0  0
    8.0919   16.3528   21.5680 H    0  0  0  0  0  0  0  0  0  0  0  0
    7.9701   14.6132   21.3442 H    0  0  0  0  0  0  0  0  0  0  0  0
   10.3042   14.2799   21.2860 H    0  0  0  0  0  0  0  0  0  0  0  0
   10.5919   15.0524   17.9258 H    0  0  0  0  0  0  0  0  0  0  0  0
   10.7430   13.8824   19.2314 H    0  0  0  0  0  0  0  0  0  0  0  0
  4  6  1  0  0  0  0
  3  4  1  0  0  0  0
  2  3  1  0  0  0  0
  1  2  1  0  0  0  0
 23  1  1  0  0  0  0
 24  1  1  0  0  0  0
 25  1  1  0  0  0  0
 26  2  1  0  0  0  0
 27  3  1  0  0  0  0
 28  3  1  0  0  0  0
  5  4  2  0  0  0  0
  7  6  1  0  0  0  0
 18  6  1  0  0  0  0
  8  7  1  0  0  0  0
 29  7  1  0  0  0  0
 30  7  1  0  0  0  0
  9  8  2  0  0  0  0
 10  9  1  0  0  0  0
 31  9  1  0  0  0  0
 11 10  2  0  0  0  0
 32 10  1  0  0  0  0
 12 11  1  0  0  0  0
 13 12  2  0  0  0  0
 33 12  1  0  0  0  0
 14 13  1  0  0  0  0
 15 14  1  0  0  0  0
 16 14  1  0  0  0  0
 34 15  1  0  0  0  0
 35 15  1  0  0  0  0
 36 15  1  0  0  0  0
 17 16  2  0  0  0  0
 37 17  1  0  0  0  0
 19 18  1  0  0  0  0
 38 18  1  0  0  0  0
 39 18  1  0  0  0  0
 20 19  1  0  0  0  0
 40 19  1  0  0  0  0
 21 20  1  0  0  0  0
 22 20  2  0  0  0  0
 41 21  1  0  0  0  0
 42 21  1  0  0  0  0
 16 11  1  0  0  0  0
 17  8  1  0  0  0  0
 19  2  1  0  0  0  0
M  END
>  <FittedScore>
-34.14

$$$$
