A71EV2A-x5494a_best-RMSD
  FITTED

 43 44     0  0  0  0  0  0  0999 V2000
   10.0585    8.8002   23.7997 C    0  0  0  0  0  0  0  0  0  0  0  0
    9.2459   10.4015   23.5882 S    0  0  0  0  0  0  0  0  0  0  0  0
    8.0362   10.5919   24.8999 C    0  0  0  0  0  0  0  0  0  0  0  0
    7.2369    9.5011   25.2797 C    0  0  0  0  0  0  0  0  0  0  0  0
    6.2198    9.6508   26.2262 C    0  0  0  0  0  0  0  0  0  0  0  0
    5.9798   10.9032   26.8013 C    0  0  0  0  0  0  0  0  0  0  0  0
    4.5524   11.1164   28.0448 BR   0  0  0  0  0  0  0  0  0  0  0  0
    6.7757   12.0008   26.4560 C    0  0  0  0  0  0  0  0  0  0  0  0
    7.8156   11.8536   25.5155 C    0  0  0  0  0  0  0  0  0  0  0  0
    8.6393   13.0932   25.1500 C    0  0  0  0  0  0  0  0  0  0  0  0
    8.3274   13.6698   23.7595 C    0  0  0  0  0  0  0  0  0  0  0  0
    7.3598   13.2575   23.1365 O    0  0  0  0  0  0  0  0  0  0  0  0
    9.1381   14.6642   23.2445 N    0  0  0  0  0  0  0  0  0  0  0  0
   10.2046   15.4210   24.0020 C    0  0  0  0  0  0  0  0  0  0  0  0
   11.5458   15.5878   23.2397 C    0  0  0  0  0  0  0  0  0  0  0  0
   11.3564   16.1548   21.8090 C    0  0  0  0  0  0  0  0  0  0  0  0
   10.2632   15.3521   21.0451 C    0  0  0  0  0  0  0  0  0  0  0  0
   10.0952   15.8492   19.6059 C    0  0  0  0  0  0  0  0  0  0  0  0
   10.1240   14.8984   18.6495 N    0  0  0  0  0  0  0  0  0  0  0  0
    9.9922   17.0211   19.2966 O    0  0  0  0  0  0  0  0  0  0  0  0
    8.9211   15.2434   21.8640 C    0  0  0  0  0  0  0  0  0  0  0  0
    8.0903   16.5637   21.9484 C    0  0  0  0  0  0  0  0  0  0  0  0
    9.3789    7.9763   23.5723 H    0  0  0  0  0  0  0  0  0  0  0  0
   10.4238    8.7112   24.8228 H    0  0  0  0  0  0  0  0  0  0  0  0
   10.9106    8.7471   23.1189 H    0  0  0  0  0  0  0  0  0  0  0  0
    7.3696    8.5280   24.8169 H    0  0  0  0  0  0  0  0  0  0  0  0
    5.6071    8.7889   26.4856 H    0  0  0  0  0  0  0  0  0  0  0  0
    6.5899   12.9739   26.9044 H    0  0  0  0  0  0  0  0  0  0  0  0
    9.6944   12.8222   25.2233 H    0  0  0  0  0  0  0  0  0  0  0  0
    8.4829   13.8834   25.8882 H    0  0  0  0  0  0  0  0  0  0  0  0
   10.4590   14.9749   24.9618 H    0  0  0  0  0  0  0  0  0  0  0  0
    9.8180   16.4101   24.2627 H    0  0  0  0  0  0  0  0  0  0  0  0
   12.0502   14.6173   23.1821 H    0  0  0  0  0  0  0  0  0  0  0  0
   12.2077   16.2503   23.8062 H    0  0  0  0  0  0  0  0  0  0  0  0
   12.3036   16.0865   21.2680 H    0  0  0  0  0  0  0  0  0  0  0  0
   11.1024   17.2197   21.8611 H    0  0  0  0  0  0  0  0  0  0  0  0
   10.6503   14.3256   20.9944 H    0  0  0  0  0  0  0  0  0  0  0  0
   10.1179   15.1690   17.6738 H    0  0  0  0  0  0  0  0  0  0  0  0
   10.2580   13.9215   18.9097 H    0  0  0  0  0  0  0  0  0  0  0  0
    8.3135   14.5483   21.2733 H    0  0  0  0  0  0  0  0  0  0  0  0
    7.2487   16.4545   22.6386 H    0  0  0  0  0  0  0  0  0  0  0  0
    7.6724   16.8215   20.9730 H    0  0  0  0  0  0  0  0  0  0  0  0
    8.6897   17.4140   22.2813 H    0  0  0  0  0  0  0  0  0  0  0  0
 10 11  1  0  0  0  0
  9 10  1  0  0  0  0
  8  9  2  0  0  0  0
  6  8  1  0  0  0  0
  5  6  2  0  0  0  0
  4  5  1  0  0  0  0
  3  4  2  0  0  0  0
  2  3  1  0  0  0  0
  1  2  1  0  0  0  0
 23  1  1  0  0  0  0
 24  1  1  0  0  0  0
 25  1  1  0  0  0  0
 26  4  1  0  0  0  0
 27  5  1  0  0  0  0
  7  6  1  0  0  0  0
 28  8  1  0  0  0  0
 29 10  1  0  0  0  0
 30 10  1  0  0  0  0
 12 11  2  0  0  0  0
 13 11  1  0  0  0  0
 14 13  1  0  0  0  0
 15 14  1  0  0  0  0
 31 14  1  0  0  0  0
 32 14  1  0  0  0  0
 16 15  1  0  0  0  0
 33 15  1  0  0  0  0
 34 15  1  0  0  0  0
 17 16  1  0  0  0  0
 35 16  1  0  0  0  0
 36 16  1  0  0  0  0
 18 17  1  0  0  0  0
 21 17  1  0  0  0  0
 37 17  1  0  0  0  0
 19 18  1  0  0  0  0
 20 18  2  0  0  0  0
 38 19  1  0  0  0  0
 39 19  1  0  0  0  0
 22 21  1  0  0  0  0
 40 21  1  0  0  0  0
 41 22  1  0  0  0  0
 42 22  1  0  0  0  0
 43 22  1  0  0  0  0
  9  3  1  0  0  0  0
 21 13  1  0  0  0  0
M  END
>  <FittedScore>
-30.53

$$$$
