A71EV2A-x5526a_lowest-energy
  FITTED

 50 52     0  0  0  0  0  0  0999 V2000
    9.5677    9.1152   23.5778 C    0  0  0  0  0  0  0  0  0  0  0  0
    9.1935   10.8180   24.1066 S    0  0  0  0  0  0  0  0  0  0  0  0
    7.5623   10.8467   24.8587 C    0  0  0  0  0  0  0  0  0  0  0  0
    6.9053    9.6509   25.1909 C    0  0  0  0  0  0  0  0  0  0  0  0
    5.6451    9.6563   25.7895 C    0  0  0  0  0  0  0  0  0  0  0  0
    4.9731   10.8609   26.1135 C    0  0  0  0  0  0  0  0  0  0  0  0
    3.6120   10.8596   26.7812 C    0  0  0  0  0  0  0  0  0  0  0  0
    3.2018    9.8008   27.6421 C    0  0  0  0  0  0  0  0  0  0  0  0
    1.9384    9.7887   28.2473 C    0  0  0  0  0  0  0  0  0  0  0  0
    1.0405   10.8372   28.0286 C    0  0  0  0  0  0  0  0  0  0  0  0
    1.4083   11.8977   27.1937 C    0  0  0  0  0  0  0  0  0  0  0  0
    2.6674   11.9117   26.5783 C    0  0  0  0  0  0  0  0  0  0  0  0
    5.6446   12.0613   25.7647 C    0  0  0  0  0  0  0  0  0  0  0  0
    6.9071   12.0703   25.1370 C    0  0  0  0  0  0  0  0  0  0  0  0
    7.5430   13.4337   24.8208 C    0  0  0  0  0  0  0  0  0  0  0  0
    7.6023   13.8154   23.3272 C    0  0  0  0  0  0  0  0  0  0  0  0
    6.8624   13.2553   22.5350 O    0  0  0  0  0  0  0  0  0  0  0  0
    8.4603   14.8228   22.9199 N    0  0  0  0  0  0  0  0  0  0  0  0
    9.3111   15.6865   23.8079 C    0  0  0  0  0  0  0  0  0  0  0  0
   10.8267   15.5666   23.4866 C    0  0  0  0  0  0  0  0  0  0  0  0
   11.1148   15.9489   22.0147 C    0  0  0  0  0  0  0  0  0  0  0  0
   10.1525   15.2252   21.0293 C    0  0  0  0  0  0  0  0  0  0  0  0
   10.3383   15.7832   19.6208 C    0  0  0  0  0  0  0  0  0  0  0  0
   10.8772   14.9390   18.7285 N    0  0  0  0  0  0  0  0  0  0  0  0
   10.0771   16.9271   19.3011 O    0  0  0  0  0  0  0  0  0  0  0  0
    8.6530   15.2406   21.4881 C    0  0  0  0  0  0  0  0  0  0  0  0
   10.5703    9.0782   23.1409 H    0  0  0  0  0  0  0  0  0  0  0  0
    8.8431    8.7929   22.8227 H    0  0  0  0  0  0  0  0  0  0  0  0
    9.5440    8.4416   24.4304 H    0  0  0  0  0  0  0  0  0  0  0  0
    7.3401    8.6814   24.9877 H    0  0  0  0  0  0  0  0  0  0  0  0
    5.1883    8.6853   25.9839 H    0  0  0  0  0  0  0  0  0  0  0  0
    3.8652    8.9667   27.8622 H    0  0  0  0  0  0  0  0  0  0  0  0
    1.6601    8.9610   28.8950 H    0  0  0  0  0  0  0  0  0  0  0  0
    0.0635   10.8276   28.5031 H    0  0  0  0  0  0  0  0  0  0  0  0
    0.7097   12.7145   27.0211 H    0  0  0  0  0  0  0  0  0  0  0  0
    2.8946   12.7479   25.9197 H    0  0  0  0  0  0  0  0  0  0  0  0
    5.1794   13.0148   25.9927 H    0  0  0  0  0  0  0  0  0  0  0  0
    8.5353   13.4082   25.2717 H    0  0  0  0  0  0  0  0  0  0  0  0
    7.0157   14.2364   25.3378 H    0  0  0  0  0  0  0  0  0  0  0  0
    9.1871   15.5023   24.8697 H    0  0  0  0  0  0  0  0  0  0  0  0
    9.0025   16.7331   23.6850 H    0  0  0  0  0  0  0  0  0  0  0  0
   11.1635   14.5406   23.6723 H    0  0  0  0  0  0  0  0  0  0  0  0
   11.4029   16.2210   24.1503 H    0  0  0  0  0  0  0  0  0  0  0  0
   12.1462   15.6840   21.7637 H    0  0  0  0  0  0  0  0  0  0  0  0
   11.0347   17.0351   21.9072 H    0  0  0  0  0  0  0  0  0  0  0  0
   10.4421   14.1715   21.0330 H    0  0  0  0  0  0  0  0  0  0  0  0
   11.0103   15.2532   17.7794 H    0  0  0  0  0  0  0  0  0  0  0  0
   11.0189   13.9594   18.9778 H    0  0  0  0  0  0  0  0  0  0  0  0
    8.0980   14.5934   20.8009 H    0  0  0  0  0  0  0  0  0  0  0  0
    8.2192   16.2349   21.3556 H    0  0  0  0  0  0  0  0  0  0  0  0
 14 15  1  0  0  0  0
 13 14  2  0  0  0  0
  6 13  1  0  0  0  0
  5  6  2  0  0  0  0
  4  5  1  0  0  0  0
  3  4  2  0  0  0  0
  2  3  1  0  0  0  0
  1  2  1  0  0  0  0
 27  1  1  0  0  0  0
 28  1  1  0  0  0  0
 29  1  1  0  0  0  0
 30  4  1  0  0  0  0
 31  5  1  0  0  0  0
  7  6  1  0  0  0  0
  8  7  2  0  0  0  0
  9  8  1  0  0  0  0
 32  8  1  0  0  0  0
 10  9  2  0  0  0  0
 33  9  1  0  0  0  0
 11 10  1  0  0  0  0
 34 10  1  0  0  0  0
 12 11  2  0  0  0  0
 35 11  1  0  0  0  0
 36 12  1  0  0  0  0
 37 13  1  0  0  0  0
 16 15  1  0  0  0  0
 38 15  1  0  0  0  0
 39 15  1  0  0  0  0
 17 16  2  0  0  0  0
 18 16  1  0  0  0  0
 19 18  1  0  0  0  0
 20 19  1  0  0  0  0
 40 19  1  0  0  0  0
 41 19  1  0  0  0  0
 21 20  1  0  0  0  0
 42 20  1  0  0  0  0
 43 20  1  0  0  0  0
 22 21  1  0  0  0  0
 44 21  1  0  0  0  0
 45 21  1  0  0  0  0
 23 22  1  0  0  0  0
 26 22  1  0  0  0  0
 46 22  1  0  0  0  0
 24 23  1  0  0  0  0
 25 23  2  0  0  0  0
 47 24  1  0  0  0  0
 48 24  1  0  0  0  0
 49 26  1  0  0  0  0
 50 26  1  0  0  0  0
 12  7  1  0  0  0  0
 14  3  1  0  0  0  0
 26 18  1  0  0  0  0
M  END
>  <FittedScore>
-34.82

$$$$
