A71EV2A-x7132a_lowest-energy
  FITTED

 63 66     0  0  0  0  0  0  0999 V2000
    9.5488   16.4397   19.3564 O    0  0  0  0  0  0  0  0  0  0  0  0
   10.1651   15.4690   19.7454 C    0  0  0  0  0  0  0  0  0  0  0  0
   10.8108   14.6883   18.8588 N    0  0  0  0  0  0  0  0  0  0  0  0
   10.1501   14.9812   21.1953 C    0  0  0  0  0  0  0  0  0  0  0  0
   11.3046   15.6444   22.0114 C    0  0  0  0  0  0  0  0  0  0  0  0
   11.2347   15.2742   23.5199 C    0  0  0  0  0  0  0  0  0  0  0  0
    9.8050   15.4782   24.0923 C    0  0  0  0  0  0  0  0  0  0  0  0
    8.7629   15.1944   21.8885 C    0  0  0  0  0  0  0  0  0  0  0  0
    8.7625   14.7268   23.3115 N    0  0  0  0  0  0  0  0  0  0  0  0
    8.0065   13.6596   23.7569 C    0  0  0  0  0  0  0  0  0  0  0  0
    7.2129   13.0945   23.0191 O    0  0  0  0  0  0  0  0  0  0  0  0
    8.2800   13.0721   25.1547 C    0  0  0  0  0  0  0  0  0  0  0  0
    7.5414   11.7474   25.4504 C    0  0  0  0  0  0  0  0  0  0  0  0
    8.0474   10.5229   24.9205 C    0  0  0  0  0  0  0  0  0  0  0  0
    9.4537   10.4717   23.8141 S    0  0  0  0  0  0  0  0  0  0  0  0
    9.6995    8.7143   23.3827 C    0  0  0  0  0  0  0  0  0  0  0  0
    6.3509   11.6738   26.2452 C    0  0  0  0  0  0  0  0  0  0  0  0
    5.8126   10.4530   26.5396 N    0  0  0  0  0  0  0  0  0  0  0  0
    6.3841    9.3374   26.0362 C    0  0  0  0  0  0  0  0  0  0  0  0
    7.4595    9.3332   25.2196 N    0  0  0  0  0  0  0  0  0  0  0  0
    5.6585   12.7814   26.7434 N    0  0  0  0  0  0  0  0  0  0  0  0
    4.9169   12.7710   28.0333 C    0  0  0  0  0  0  0  0  0  0  0  0
    3.8425   13.8814   27.9314 C    0  0  0  0  0  0  0  0  0  0  0  0
    3.8498   14.3582   26.4701 C    0  0  0  0  0  0  0  0  0  0  0  0
    5.1560   13.8426   25.8509 C    0  0  0  0  0  0  0  0  0  0  0  0
    5.8840   12.9343   29.2441 C    0  0  0  0  0  0  0  0  0  0  0  0
    5.3143   12.3742   30.5465 C    0  0  0  0  0  0  0  0  0  0  0  0
    5.4150   11.0878   31.0195 N    0  0  0  0  0  0  0  0  0  0  0  0
    6.0279    9.9484   30.3158 C    0  0  0  0  0  0  0  0  0  0  0  0
    4.7534   10.8388   32.1931 N    0  0  0  0  0  0  0  0  0  0  0  0
    4.2045   12.1927   32.4427 C    0  0  0  0  0  0  0  0  0  0  0  0
    4.5516   13.0818   31.4469 C    0  0  0  0  0  0  0  0  0  0  0  0
   10.7914   14.9243   17.8706 H    0  0  0  0  0  0  0  0  0  0  0  0
   11.1336   13.7695   19.1531 H    0  0  0  0  0  0  0  0  0  0  0  0
   10.3328   13.8991   21.2014 H    0  0  0  0  0  0  0  0  0  0  0  0
   12.2680   15.3183   21.6126 H    0  0  0  0  0  0  0  0  0  0  0  0
   11.2658   16.7332   21.9057 H    0  0  0  0  0  0  0  0  0  0  0  0
   11.5392   14.2325   23.6579 H    0  0  0  0  0  0  0  0  0  0  0  0
   11.9451   15.8872   24.0808 H    0  0  0  0  0  0  0  0  0  0  0  0
    9.8165   15.2301   25.1525 H    0  0  0  0  0  0  0  0  0  0  0  0
    9.5623   16.5464   24.0707 H    0  0  0  0  0  0  0  0  0  0  0  0
    7.9978   14.7032   21.2798 H    0  0  0  0  0  0  0  0  0  0  0  0
    8.4876   16.2544   21.8699 H    0  0  0  0  0  0  0  0  0  0  0  0
    9.3522   12.9037   25.2788 H    0  0  0  0  0  0  0  0  0  0  0  0
    8.0486   13.8112   25.9229 H    0  0  0  0  0  0  0  0  0  0  0  0
   10.5544    8.6203   22.7101 H    0  0  0  0  0  0  0  0  0  0  0  0
    8.8119    8.3204   22.8837 H    0  0  0  0  0  0  0  0  0  0  0  0
    9.8996    8.1338   24.2855 H    0  0  0  0  0  0  0  0  0  0  0  0
    5.9370    8.3800   26.2912 H    0  0  0  0  0  0  0  0  0  0  0  0
    4.3570   11.8389   28.1724 H    0  0  0  0  0  0  0  0  0  0  0  0
    2.8577   13.4844   28.1962 H    0  0  0  0  0  0  0  0  0  0  0  0
    4.0359   14.7230   28.6035 H    0  0  0  0  0  0  0  0  0  0  0  0
    2.9863   13.9540   25.9330 H    0  0  0  0  0  0  0  0  0  0  0  0
    3.7955   15.4499   26.4163 H    0  0  0  0  0  0  0  0  0  0  0  0
    4.9654   13.4739   24.8382 H    0  0  0  0  0  0  0  0  0  0  0  0
    5.8619   14.6718   25.7702 H    0  0  0  0  0  0  0  0  0  0  0  0
    6.1481   13.9864   29.3848 H    0  0  0  0  0  0  0  0  0  0  0  0
    6.8363   12.4386   29.0369 H    0  0  0  0  0  0  0  0  0  0  0  0
    6.1096    9.0544   30.9407 H    0  0  0  0  0  0  0  0  0  0  0  0
    7.0400   10.1799   29.9766 H    0  0  0  0  0  0  0  0  0  0  0  0
    5.4439    9.6696   29.4361 H    0  0  0  0  0  0  0  0  0  0  0  0
    3.5968   12.4149   33.3169 H    0  0  0  0  0  0  0  0  0  0  0  0
    4.2638   14.1282   31.3810 H    0  0  0  0  0  0  0  0  0  0  0  0
 10 12  1  0  0  0  0
  9 10  1  0  0  0  0
  7  9  1  0  0  0  0
  6  7  1  0  0  0  0
  5  6  1  0  0  0  0
  4  5  1  0  0  0  0
  2  4  1  0  0  0  0
  1  2  2  0  0  0  0
  3  2  1  0  0  0  0
 33  3  1  0  0  0  0
 34  3  1  0  0  0  0
 35  4  1  0  0  0  0
 36  5  1  0  0  0  0
 37  5  1  0  0  0  0
 38  6  1  0  0  0  0
 39  6  1  0  0  0  0
 40  7  1  0  0  0  0
 41  7  1  0  0  0  0
  8  4  1  0  0  0  0
 42  8  1  0  0  0  0
 43  8  1  0  0  0  0
 11 10  2  0  0  0  0
 44 12  1  0  0  0  0
 45 12  1  0  0  0  0
 13 12  1  0  0  0  0
 14 13  1  0  0  0  0
 20 14  2  0  0  0  0
 15 14  1  0  0  0  0
 16 15  1  0  0  0  0
 46 16  1  0  0  0  0
 47 16  1  0  0  0  0
 48 16  1  0  0  0  0
 17 13  2  0  0  0  0
 18 17  1  0  0  0  0
 19 18  2  0  0  0  0
 49 19  1  0  0  0  0
 21 17  1  0  0  0  0
 25 21  1  0  0  0  0
 22 21  1  0  0  0  0
 26 22  1  0  0  0  0
 50 22  1  0  0  0  0
 23 22  1  0  0  0  0
 51 23  1  0  0  0  0
 52 23  1  0  0  0  0
 24 23  1  0  0  0  0
 53 24  1  0  0  0  0
 54 24  1  0  0  0  0
 55 25  1  0  0  0  0
 56 25  1  0  0  0  0
 57 26  1  0  0  0  0
 58 26  1  0  0  0  0
 27 26  1  0  0  0  0
 32 27  2  0  0  0  0
 28 27  1  0  0  0  0
 29 28  1  0  0  0  0
 59 29  1  0  0  0  0
 60 29  1  0  0  0  0
 61 29  1  0  0  0  0
 30 28  1  0  0  0  0
 31 30  2  0  0  0  0
 62 31  1  0  0  0  0
 63 32  1  0  0  0  0
  9  8  1  0  0  0  0
 20 19  1  0  0  0  0
 25 24  1  0  0  0  0
 32 31  1  0  0  0  0
M  END
>  <FittedScore>
-35.76

$$$$
