A71EV2A-x4456a_lowest-energy
  FITTED

 41 43     0  0  0  0  0  0  0999 V2000
    7.3299   13.0461   22.7530 O    0  0  0  0  0  0  0  0  0  0  0  0
    8.1312   13.5593   23.5128 C    0  0  0  0  0  0  0  0  0  0  0  0
    8.8551   14.6753   23.1395 N    0  0  0  0  0  0  0  0  0  0  0  0
    9.8118   15.4814   23.9829 C    0  0  0  0  0  0  0  0  0  0  0  0
   11.2498   15.5608   23.3991 C    0  0  0  0  0  0  0  0  0  0  0  0
   11.2527   16.0322   21.9237 C    0  0  0  0  0  0  0  0  0  0  0  0
    8.8080   15.2454   21.7525 C    0  0  0  0  0  0  0  0  0  0  0  0
   10.2181   15.2279   21.0911 C    0  0  0  0  0  0  0  0  0  0  0  0
   10.1991   15.7237   19.6528 C    0  0  0  0  0  0  0  0  0  0  0  0
    9.7466   16.8040   19.3173 O    0  0  0  0  0  0  0  0  0  0  0  0
   10.6541   14.8394   18.7433 N    0  0  0  0  0  0  0  0  0  0  0  0
    8.4884   12.8138   24.8173 C    0  0  0  0  0  0  0  0  0  0  0  0
    7.4107   11.8531   25.2857 C    0  0  0  0  0  0  0  0  0  0  0  0
    7.7939   10.5388   25.0685 C    0  0  0  0  0  0  0  0  0  0  0  0
    9.1685   10.4639   24.4559 C    0  0  0  0  0  0  0  0  0  0  0  0
    9.7303   11.8979   24.5989 C    0  0  0  0  0  0  0  0  0  0  0  0
    6.1862   12.1485   25.9091 C    0  0  0  0  0  0  0  0  0  0  0  0
    5.7970   13.4360   26.1038 O    0  0  0  0  0  0  0  0  0  0  0  0
    5.3635   11.0872   26.3342 C    0  0  0  0  0  0  0  0  0  0  0  0
    5.7563    9.7556   26.1023 C    0  0  0  0  0  0  0  0  0  0  0  0
    6.9648    9.4758   25.4401 C    0  0  0  0  0  0  0  0  0  0  0  0
    9.4129   16.4961   24.0910 H    0  0  0  0  0  0  0  0  0  0  0  0
    9.9053   15.1204   25.0037 H    0  0  0  0  0  0  0  0  0  0  0  0
   11.8486   16.2492   23.9963 H    0  0  0  0  0  0  0  0  0  0  0  0
   11.7251   14.5796   23.4681 H    0  0  0  0  0  0  0  0  0  0  0  0
   11.0307   17.1043   21.8703 H    0  0  0  0  0  0  0  0  0  0  0  0
   12.2510   15.8952   21.4981 H    0  0  0  0  0  0  0  0  0  0  0  0
    8.4223   16.2683   21.7973 H    0  0  0  0  0  0  0  0  0  0  0  0
    8.1144   14.7157   21.0928 H    0  0  0  0  0  0  0  0  0  0  0  0
   10.5405   14.1798   21.0909 H    0  0  0  0  0  0  0  0  0  0  0  0
   10.9045   13.8836   19.0225 H    0  0  0  0  0  0  0  0  0  0  0  0
   10.6521   15.1002   17.7636 H    0  0  0  0  0  0  0  0  0  0  0  0
    8.6553   13.4922   25.6539 H    0  0  0  0  0  0  0  0  0  0  0  0
    9.7999    9.7376   24.9752 H    0  0  0  0  0  0  0  0  0  0  0  0
    9.1060   10.1803   23.3996 H    0  0  0  0  0  0  0  0  0  0  0  0
   10.3830   11.9506   25.4796 H    0  0  0  0  0  0  0  0  0  0  0  0
   10.3345   12.1832   23.7285 H    0  0  0  0  0  0  0  0  0  0  0  0
    4.9961   13.4628   26.6562 H    0  0  0  0  0  0  0  0  0  0  0  0
    4.4211   11.2899   26.8418 H    0  0  0  0  0  0  0  0  0  0  0  0
    5.1080    8.9411   26.4144 H    0  0  0  0  0  0  0  0  0  0  0  0
    7.2625    8.4494   25.2516 H    0  0  0  0  0  0  0  0  0  0  0  0
  2  1  2  0  0  0  0
  3  2  1  0  0  0  0
  4  3  1  0  0  0  0
 22  4  1  0  0  0  0
 23  4  1  0  0  0  0
  5  4  1  0  0  0  0
 24  5  1  0  0  0  0
 25  5  1  0  0  0  0
  6  5  1  0  0  0  0
 26  6  1  0  0  0  0
 27  6  1  0  0  0  0
  7  3  1  0  0  0  0
 28  7  1  0  0  0  0
 29  7  1  0  0  0  0
  8  6  1  0  0  0  0
  9  8  1  0  0  0  0
 30  8  1  0  0  0  0
 10  9  2  0  0  0  0
 11  9  1  0  0  0  0
 31 11  1  0  0  0  0
 32 11  1  0  0  0  0
 12  2  1  0  0  0  0
 16 12  1  0  0  0  0
 33 12  1  0  0  0  0
 13 12  1  0  0  0  0
 14 13  1  0  0  0  0
 21 14  2  0  0  0  0
 15 14  1  0  0  0  0
 34 15  1  0  0  0  0
 35 15  1  0  0  0  0
 36 16  1  0  0  0  0
 37 16  1  0  0  0  0
 17 13  2  0  0  0  0
 18 17  1  0  0  0  0
 38 18  1  0  0  0  0
 19 17  1  0  0  0  0
 39 19  1  0  0  0  0
 20 19  2  0  0  0  0
 40 20  1  0  0  0  0
 41 21  1  0  0  0  0
  8  7  1  0  0  0  0
 16 15  1  0  0  0  0
 21 20  1  0  0  0  0
M  END
>  <FittedScore>
-35.36

$$$$
