A71EV2A-x4456a_best-RMSD
  FITTED

 41 43     0  0  0  0  0  0  0999 V2000
    7.3394   13.0358   22.7565 O    0  0  0  0  0  0  0  0  0  0  0  0
    8.1773   13.5115   23.5093 C    0  0  0  0  0  0  0  0  0  0  0  0
    8.8890   14.6371   23.1408 N    0  0  0  0  0  0  0  0  0  0  0  0
    9.8141   15.4522   24.0051 C    0  0  0  0  0  0  0  0  0  0  0  0
   11.2697   15.4959   23.4639 C    0  0  0  0  0  0  0  0  0  0  0  0
   11.3151   15.9814   21.9909 C    0  0  0  0  0  0  0  0  0  0  0  0
    8.8791   15.1849   21.7438 C    0  0  0  0  0  0  0  0  0  0  0  0
   10.3067   15.1853   21.1088 C    0  0  0  0  0  0  0  0  0  0  0  0
   10.2979   15.6955   19.6649 C    0  0  0  0  0  0  0  0  0  0  0  0
    9.8866   16.7949   19.3434 O    0  0  0  0  0  0  0  0  0  0  0  0
   10.6776   14.7988   18.7345 N    0  0  0  0  0  0  0  0  0  0  0  0
    8.5803   12.7095   24.7660 C    0  0  0  0  0  0  0  0  0  0  0  0
    7.4645   11.8282   25.2952 C    0  0  0  0  0  0  0  0  0  0  0  0
    7.7495   10.4872   25.0988 C    0  0  0  0  0  0  0  0  0  0  0  0
    9.0777   10.3084   24.4068 C    0  0  0  0  0  0  0  0  0  0  0  0
    9.7339   11.7126   24.4479 C    0  0  0  0  0  0  0  0  0  0  0  0
    6.2767   12.2249   25.9298 C    0  0  0  0  0  0  0  0  0  0  0  0
    5.9885   13.5434   26.0929 O    0  0  0  0  0  0  0  0  0  0  0  0
    5.3856   11.2358   26.3881 C    0  0  0  0  0  0  0  0  0  0  0  0
    5.6810    9.8741   26.1886 C    0  0  0  0  0  0  0  0  0  0  0  0
    6.8618    9.4949   25.5260 C    0  0  0  0  0  0  0  0  0  0  0  0
    9.4267   16.4754   24.0589 H    0  0  0  0  0  0  0  0  0  0  0  0
    9.8481   15.1341   25.0436 H    0  0  0  0  0  0  0  0  0  0  0  0
   11.8693   16.1609   24.0870 H    0  0  0  0  0  0  0  0  0  0  0  0
   11.7143   14.4988   23.5359 H    0  0  0  0  0  0  0  0  0  0  0  0
   11.0964   17.0524   21.9486 H    0  0  0  0  0  0  0  0  0  0  0  0
   12.3279   15.8532   21.5968 H    0  0  0  0  0  0  0  0  0  0  0  0
    8.4780   16.2015   21.7660 H    0  0  0  0  0  0  0  0  0  0  0  0
    8.2118   14.6357   21.0750 H    0  0  0  0  0  0  0  0  0  0  0  0
   10.6459   14.1402   21.1257 H    0  0  0  0  0  0  0  0  0  0  0  0
   10.6122   15.0311   17.7522 H    0  0  0  0  0  0  0  0  0  0  0  0
   10.8795   13.8368   19.0077 H    0  0  0  0  0  0  0  0  0  0  0  0
    8.8618   13.3366   25.6106 H    0  0  0  0  0  0  0  0  0  0  0  0
    9.6988    9.5655   24.9107 H    0  0  0  0  0  0  0  0  0  0  0  0
    8.9332    9.9908   23.3685 H    0  0  0  0  0  0  0  0  0  0  0  0
   10.4845   11.7422   25.2438 H    0  0  0  0  0  0  0  0  0  0  0  0
   10.2480   11.9384   23.5095 H    0  0  0  0  0  0  0  0  0  0  0  0
    5.1624   13.6539   26.5943 H    0  0  0  0  0  0  0  0  0  0  0  0
    4.4619   11.5195   26.8882 H    0  0  0  0  0  0  0  0  0  0  0  0
    4.9892    9.1131   26.5423 H    0  0  0  0  0  0  0  0  0  0  0  0
    7.0895    8.4459   25.3622 H    0  0  0  0  0  0  0  0  0  0  0  0
  2  1  2  0  0  0  0
  3  2  1  0  0  0  0
  4  3  1  0  0  0  0
 22  4  1  0  0  0  0
 23  4  1  0  0  0  0
  5  4  1  0  0  0  0
 24  5  1  0  0  0  0
 25  5  1  0  0  0  0
  6  5  1  0  0  0  0
 26  6  1  0  0  0  0
 27  6  1  0  0  0  0
  7  3  1  0  0  0  0
 28  7  1  0  0  0  0
 29  7  1  0  0  0  0
  8  6  1  0  0  0  0
  9  8  1  0  0  0  0
 30  8  1  0  0  0  0
 10  9  2  0  0  0  0
 11  9  1  0  0  0  0
 31 11  1  0  0  0  0
 32 11  1  0  0  0  0
 12  2  1  0  0  0  0
 16 12  1  0  0  0  0
 33 12  1  0  0  0  0
 13 12  1  0  0  0  0
 14 13  1  0  0  0  0
 21 14  2  0  0  0  0
 15 14  1  0  0  0  0
 34 15  1  0  0  0  0
 35 15  1  0  0  0  0
 36 16  1  0  0  0  0
 37 16  1  0  0  0  0
 17 13  2  0  0  0  0
 18 17  1  0  0  0  0
 38 18  1  0  0  0  0
 19 17  1  0  0  0  0
 39 19  1  0  0  0  0
 20 19  2  0  0  0  0
 40 20  1  0  0  0  0
 41 21  1  0  0  0  0
  8  7  1  0  0  0  0
 16 15  1  0  0  0  0
 21 20  1  0  0  0  0
M  END
>  <FittedScore>
-34.16

$$$$
