A71EV2A-x4856a_lowest-energy
  FITTED

 37 38     0  0  0  0  0  0  0999 V2000
    9.7942   16.5537   19.5113 O    0  0  0  0  0  0  0  0  0  0  0  0
   10.5559   15.6283   19.7269 C    0  0  0  0  0  0  0  0  0  0  0  0
   10.8778   14.7842   18.7327 N    0  0  0  0  0  0  0  0  0  0  0  0
   10.8418   15.0900   21.1229 C    0  0  0  0  0  0  0  0  0  0  0  0
   11.4355   16.0835   22.1267 C    0  0  0  0  0  0  0  0  0  0  0  0
   11.0575   15.4529   23.4801 C    0  0  0  0  0  0  0  0  0  0  0  0
    9.5820   14.5682   21.8330 C    0  0  0  0  0  0  0  0  0  0  0  0
    9.8408   14.6354   23.2808 N    0  0  0  0  0  0  0  0  0  0  0  0
    9.1012   14.0521   24.2764 C    0  0  0  0  0  0  0  0  0  0  0  0
    9.5128   13.9860   25.4205 O    0  0  0  0  0  0  0  0  0  0  0  0
    7.6905   13.5426   23.9525 C    0  0  0  0  0  0  0  0  0  0  0  0
    7.2441   12.3572   24.8176 C    0  0  0  0  0  0  0  0  0  0  0  0
    7.7544   11.0465   24.6287 C    0  0  0  0  0  0  0  0  0  0  0  0
    9.1249   10.7734   23.5018 S    0  0  0  0  0  0  0  0  0  0  0  0
    9.4336    8.9875   23.3410 C    0  0  0  0  0  0  0  0  0  0  0  0
    6.2698   12.5894   25.8027 C    0  0  0  0  0  0  0  0  0  0  0  0
    5.7493   11.5279   26.5478 C    0  0  0  0  0  0  0  0  0  0  0  0
    4.4502   11.8859   27.8927 BR   0  0  0  0  0  0  0  0  0  0  0  0
    6.1811   10.2149   26.3035 C    0  0  0  0  0  0  0  0  0  0  0  0
    7.1823    9.9799   25.3535 C    0  0  0  0  0  0  0  0  0  0  0  0
   10.8143   15.1104   17.7756 H    0  0  0  0  0  0  0  0  0  0  0  0
   11.1266   13.8118   18.9241 H    0  0  0  0  0  0  0  0  0  0  0  0
   11.5575   14.2581   21.0497 H    0  0  0  0  0  0  0  0  0  0  0  0
   12.5171   16.1880   22.0149 H    0  0  0  0  0  0  0  0  0  0  0  0
   10.9758   17.0739   22.0330 H    0  0  0  0  0  0  0  0  0  0  0  0
   11.8664   14.8191   23.8536 H    0  0  0  0  0  0  0  0  0  0  0  0
   10.8670   16.2366   24.2233 H    0  0  0  0  0  0  0  0  0  0  0  0
    9.4003   13.5368   21.5114 H    0  0  0  0  0  0  0  0  0  0  0  0
    8.6963   15.1647   21.5906 H    0  0  0  0  0  0  0  0  0  0  0  0
    7.0078   14.3909   24.0605 H    0  0  0  0  0  0  0  0  0  0  0  0
    7.5639   13.2323   22.9149 H    0  0  0  0  0  0  0  0  0  0  0  0
   10.2702    8.8357   22.6599 H    0  0  0  0  0  0  0  0  0  0  0  0
    8.5559    8.4926   22.9221 H    0  0  0  0  0  0  0  0  0  0  0  0
    9.7004    8.5568   24.3093 H    0  0  0  0  0  0  0  0  0  0  0  0
    5.9115   13.6006   25.9791 H    0  0  0  0  0  0  0  0  0  0  0  0
    5.7578    9.3736   26.8478 H    0  0  0  0  0  0  0  0  0  0  0  0
    7.5092    8.9593   25.2119 H    0  0  0  0  0  0  0  0  0  0  0  0
  8  9  1  0  0  0  0
  6  8  1  0  0  0  0
  5  6  1  0  0  0  0
  4  5  1  0  0  0  0
  2  4  1  0  0  0  0
  1  2  2  0  0  0  0
  3  2  1  0  0  0  0
 21  3  1  0  0  0  0
 22  3  1  0  0  0  0
 23  4  1  0  0  0  0
 24  5  1  0  0  0  0
 25  5  1  0  0  0  0
 26  6  1  0  0  0  0
 27  6  1  0  0  0  0
  7  4  1  0  0  0  0
 28  7  1  0  0  0  0
 29  7  1  0  0  0  0
 10  9  2  0  0  0  0
 11  9  1  0  0  0  0
 30 11  1  0  0  0  0
 31 11  1  0  0  0  0
 12 11  1  0  0  0  0
 13 12  1  0  0  0  0
 20 13  2  0  0  0  0
 14 13  1  0  0  0  0
 15 14  1  0  0  0  0
 32 15  1  0  0  0  0
 33 15  1  0  0  0  0
 34 15  1  0  0  0  0
 16 12  2  0  0  0  0
 35 16  1  0  0  0  0
 17 16  1  0  0  0  0
 18 17  1  0  0  0  0
 19 17  2  0  0  0  0
 36 19  1  0  0  0  0
 37 20  1  0  0  0  0
  8  7  1  0  0  0  0
 20 19  1  0  0  0  0
M  END
>  <FittedScore>
-35.19

$$$$
