A71EV2A-x4856a_best-RMSD
  FITTED

 37 38     0  0  0  0  0  0  0999 V2000
    9.7360   16.5020   19.5654 O    0  0  0  0  0  0  0  0  0  0  0  0
   10.4976   15.5783   19.7693 C    0  0  0  0  0  0  0  0  0  0  0  0
   10.9486   14.8169   18.7554 N    0  0  0  0  0  0  0  0  0  0  0  0
   10.7641   15.0005   21.1496 C    0  0  0  0  0  0  0  0  0  0  0  0
   11.4772   15.9224   22.1392 C    0  0  0  0  0  0  0  0  0  0  0  0
   11.0956   15.2875   23.4874 C    0  0  0  0  0  0  0  0  0  0  0  0
    9.4908   14.5578   21.8834 C    0  0  0  0  0  0  0  0  0  0  0  0
    9.8011   14.5812   23.3193 N    0  0  0  0  0  0  0  0  0  0  0  0
    9.0556   14.0398   24.3341 C    0  0  0  0  0  0  0  0  0  0  0  0
    9.5120   13.9372   25.4607 O    0  0  0  0  0  0  0  0  0  0  0  0
    7.6189   13.5789   24.0383 C    0  0  0  0  0  0  0  0  0  0  0  0
    7.1663   12.3863   24.8884 C    0  0  0  0  0  0  0  0  0  0  0  0
    7.6907   11.0764   24.7100 C    0  0  0  0  0  0  0  0  0  0  0  0
    9.0579   10.7975   23.5755 S    0  0  0  0  0  0  0  0  0  0  0  0
    9.2868    9.0051   23.3514 C    0  0  0  0  0  0  0  0  0  0  0  0
    6.1777   12.6143   25.8664 C    0  0  0  0  0  0  0  0  0  0  0  0
    5.6712   11.5518   26.6243 C    0  0  0  0  0  0  0  0  0  0  0  0
    4.3591   11.9073   27.9567 BR   0  0  0  0  0  0  0  0  0  0  0  0
    6.1346   10.2496   26.4075 C    0  0  0  0  0  0  0  0  0  0  0  0
    7.1368   10.0183   25.4567 C    0  0  0  0  0  0  0  0  0  0  0  0
   10.8548   15.1207   17.7904 H    0  0  0  0  0  0  0  0  0  0  0  0
   11.3530   13.9106   18.9725 H    0  0  0  0  0  0  0  0  0  0  0  0
   11.4013   14.1112   21.0525 H    0  0  0  0  0  0  0  0  0  0  0  0
   12.5594   15.9226   21.9816 H    0  0  0  0  0  0  0  0  0  0  0  0
   11.1075   16.9492   22.0759 H    0  0  0  0  0  0  0  0  0  0  0  0
   11.8618   14.5731   23.8122 H    0  0  0  0  0  0  0  0  0  0  0  0
   11.0063   16.0628   24.2569 H    0  0  0  0  0  0  0  0  0  0  0  0
    9.2315   13.5495   21.5514 H    0  0  0  0  0  0  0  0  0  0  0  0
    8.6439   15.2194   21.6847 H    0  0  0  0  0  0  0  0  0  0  0  0
    6.9691   14.4465   24.1872 H    0  0  0  0  0  0  0  0  0  0  0  0
    7.4495   13.2928   22.9978 H    0  0  0  0  0  0  0  0  0  0  0  0
    8.3657    8.5509   22.9860 H    0  0  0  0  0  0  0  0  0  0  0  0
    9.6064    8.5346   24.2816 H    0  0  0  0  0  0  0  0  0  0  0  0
   10.0676    8.8442   22.6062 H    0  0  0  0  0  0  0  0  0  0  0  0
    5.8020   13.6220   26.0304 H    0  0  0  0  0  0  0  0  0  0  0  0
    5.7376    9.4112   26.9769 H    0  0  0  0  0  0  0  0  0  0  0  0
    7.4878    9.0007   25.3409 H    0  0  0  0  0  0  0  0  0  0  0  0
  8  9  1  0  0  0  0
  6  8  1  0  0  0  0
  5  6  1  0  0  0  0
  4  5  1  0  0  0  0
  2  4  1  0  0  0  0
  1  2  2  0  0  0  0
  3  2  1  0  0  0  0
 21  3  1  0  0  0  0
 22  3  1  0  0  0  0
 23  4  1  0  0  0  0
 24  5  1  0  0  0  0
 25  5  1  0  0  0  0
 26  6  1  0  0  0  0
 27  6  1  0  0  0  0
  7  4  1  0  0  0  0
 28  7  1  0  0  0  0
 29  7  1  0  0  0  0
 10  9  2  0  0  0  0
 11  9  1  0  0  0  0
 30 11  1  0  0  0  0
 31 11  1  0  0  0  0
 12 11  1  0  0  0  0
 13 12  1  0  0  0  0
 20 13  2  0  0  0  0
 14 13  1  0  0  0  0
 15 14  1  0  0  0  0
 32 15  1  0  0  0  0
 33 15  1  0  0  0  0
 34 15  1  0  0  0  0
 16 12  2  0  0  0  0
 35 16  1  0  0  0  0
 17 16  1  0  0  0  0
 18 17  1  0  0  0  0
 19 17  2  0  0  0  0
 36 19  1  0  0  0  0
 37 20  1  0  0  0  0
  8  7  1  0  0  0  0
 20 19  1  0  0  0  0
M  END
>  <FittedScore>
-34.67

$$$$
