A71EV2A-x4908a_lowest-energy
  FITTED

 39 41     0  0  0  0  0  0  0999 V2000
    7.5072   13.2651   22.6963 O    0  0  0  0  0  0  0  0  0  0  0  0
    8.3393   13.8142   23.4044 C    0  0  0  0  0  0  0  0  0  0  0  0
    9.0480   14.9091   22.9541 N    0  0  0  0  0  0  0  0  0  0  0  0
    9.9066   15.8345   23.7786 C    0  0  0  0  0  0  0  0  0  0  0  0
   11.3726   15.9365   23.2698 C    0  0  0  0  0  0  0  0  0  0  0  0
   11.4351   16.3192   21.7678 C    0  0  0  0  0  0  0  0  0  0  0  0
    9.0426   15.3573   21.5232 C    0  0  0  0  0  0  0  0  0  0  0  0
   10.4845   15.4137   20.9304 C    0  0  0  0  0  0  0  0  0  0  0  0
   10.4907   15.8325   19.4689 C    0  0  0  0  0  0  0  0  0  0  0  0
    9.9395   16.8340   19.0483 O    0  0  0  0  0  0  0  0  0  0  0  0
   11.0151   14.9263   18.6224 N    0  0  0  0  0  0  0  0  0  0  0  0
    8.6478   13.2539   24.8072 C    0  0  0  0  0  0  0  0  0  0  0  0
    8.0723   11.8617   25.0626 C    0  0  0  0  0  0  0  0  0  0  0  0
    8.6098   10.7299   24.4249 C    0  0  0  0  0  0  0  0  0  0  0  0
    9.7179   10.6521   23.6090 O    0  0  0  0  0  0  0  0  0  0  0  0
    9.7403    9.3363   23.2183 C    0  0  0  0  0  0  0  0  0  0  0  0
    8.7841    8.5636   23.7095 C    0  0  0  0  0  0  0  0  0  0  0  0
    8.0188    9.4902   24.5452 C    0  0  0  0  0  0  0  0  0  0  0  0
    6.9019    9.2855   25.3595 C    0  0  0  0  0  0  0  0  0  0  0  0
    6.3685   10.3910   26.0458 C    0  0  0  0  0  0  0  0  0  0  0  0
    6.9369   11.6731   25.8849 C    0  0  0  0  0  0  0  0  0  0  0  0
    9.4582   16.8330   23.7623 H    0  0  0  0  0  0  0  0  0  0  0  0
    9.9388   15.5770   24.8362 H    0  0  0  0  0  0  0  0  0  0  0  0
   11.9165   16.6807   23.8559 H    0  0  0  0  0  0  0  0  0  0  0  0
   11.8805   14.9798   23.4222 H    0  0  0  0  0  0  0  0  0  0  0  0
   11.1721   17.3750   21.6398 H    0  0  0  0  0  0  0  0  0  0  0  0
   12.4611   16.2015   21.4059 H    0  0  0  0  0  0  0  0  0  0  0  0
    8.5633   16.3393   21.4566 H    0  0  0  0  0  0  0  0  0  0  0  0
    8.4472   14.7053   20.8778 H    0  0  0  0  0  0  0  0  0  0  0  0
   10.8797   14.3924   21.0011 H    0  0  0  0  0  0  0  0  0  0  0  0
   11.2116   13.9761   18.9454 H    0  0  0  0  0  0  0  0  0  0  0  0
   11.0500   15.1389   17.6334 H    0  0  0  0  0  0  0  0  0  0  0  0
    8.2745   13.9517   25.5617 H    0  0  0  0  0  0  0  0  0  0  0  0
    9.7303   13.1929   24.9533 H    0  0  0  0  0  0  0  0  0  0  0  0
   10.5202    8.9821   22.5464 H    0  0  0  0  0  0  0  0  0  0  0  0
    8.6542    7.4994   23.5183 H    0  0  0  0  0  0  0  0  0  0  0  0
    6.4613    8.2967   25.4583 H    0  0  0  0  0  0  0  0  0  0  0  0
    5.5016   10.2586   26.6874 H    0  0  0  0  0  0  0  0  0  0  0  0
    6.4828   12.5189   26.3965 H    0  0  0  0  0  0  0  0  0  0  0  0
  2  1  2  0  0  0  0
  3  2  1  0  0  0  0
  4  3  1  0  0  0  0
 22  4  1  0  0  0  0
 23  4  1  0  0  0  0
  5  4  1  0  0  0  0
 24  5  1  0  0  0  0
 25  5  1  0  0  0  0
  6  5  1  0  0  0  0
 26  6  1  0  0  0  0
 27  6  1  0  0  0  0
  7  3  1  0  0  0  0
 28  7  1  0  0  0  0
 29  7  1  0  0  0  0
  8  6  1  0  0  0  0
  9  8  1  0  0  0  0
 30  8  1  0  0  0  0
 10  9  2  0  0  0  0
 11  9  1  0  0  0  0
 31 11  1  0  0  0  0
 32 11  1  0  0  0  0
 12  2  1  0  0  0  0
 33 12  1  0  0  0  0
 34 12  1  0  0  0  0
 13 12  1  0  0  0  0
 21 13  1  0  0  0  0
 14 13  2  0  0  0  0
 15 14  1  0  0  0  0
 16 15  1  0  0  0  0
 35 16  1  0  0  0  0
 17 16  2  0  0  0  0
 36 17  1  0  0  0  0
 18 17  1  0  0  0  0
 19 18  2  0  0  0  0
 37 19  1  0  0  0  0
 20 19  1  0  0  0  0
 38 20  1  0  0  0  0
 39 21  1  0  0  0  0
  8  7  1  0  0  0  0
 18 14  1  0  0  0  0
 21 20  2  0  0  0  0
M  END
>  <FittedScore>
-32.28

$$$$
