A71EV2A-x4308a_best-RMSD
  FITTED

 38 40     0  0  0  0  0  0  0999 V2000
    8.5169   10.3163   24.5019 CL   0  0  0  0  0  0  0  0  0  0  0  0
    7.3106   11.0673   25.5136 C    0  0  0  0  0  0  0  0  0  0  0  0
    6.4461   10.2177   26.2375 C    0  0  0  0  0  0  0  0  0  0  0  0
    5.5304   10.7938   27.1293 C    0  0  0  0  0  0  0  0  0  0  0  0
    4.6199   10.1745   27.9454 O    0  0  0  0  0  0  0  0  0  0  0  0
    3.9782   11.2243   28.7344 C    0  0  0  0  0  0  0  0  0  0  0  0
    4.5311   12.4811   28.2421 O    0  0  0  0  0  0  0  0  0  0  0  0
    5.4720   12.1571   27.3121 C    0  0  0  0  0  0  0  0  0  0  0  0
    6.3007   13.0254   26.6090 C    0  0  0  0  0  0  0  0  0  0  0  0
    7.2184   12.4800   25.6905 C    0  0  0  0  0  0  0  0  0  0  0  0
    8.0140   13.4252   24.9685 N    0  0  0  0  0  0  0  0  0  0  0  0
    8.1354   13.5427   23.6206 C    0  0  0  0  0  0  0  0  0  0  0  0
    7.4061   12.9020   22.8816 O    0  0  0  0  0  0  0  0  0  0  0  0
    8.9308   14.5669   23.1614 N    0  0  0  0  0  0  0  0  0  0  0  0
    9.7990   15.4798   23.9920 C    0  0  0  0  0  0  0  0  0  0  0  0
   11.2217   15.7206   23.4167 C    0  0  0  0  0  0  0  0  0  0  0  0
   11.1935   16.1603   21.9303 C    0  0  0  0  0  0  0  0  0  0  0  0
    8.9144   15.0015   21.7225 C    0  0  0  0  0  0  0  0  0  0  0  0
   10.3329   15.1737   21.0945 C    0  0  0  0  0  0  0  0  0  0  0  0
   10.2718   15.5992   19.6260 C    0  0  0  0  0  0  0  0  0  0  0  0
    9.6438   16.5560   19.2207 O    0  0  0  0  0  0  0  0  0  0  0  0
   10.8139   14.7407   18.7493 N    0  0  0  0  0  0  0  0  0  0  0  0
    6.4969    9.1370   26.1240 H    0  0  0  0  0  0  0  0  0  0  0  0
    4.2239   11.1005   29.7927 H    0  0  0  0  0  0  0  0  0  0  0  0
    2.8905   11.2087   28.6018 H    0  0  0  0  0  0  0  0  0  0  0  0
    6.2196   14.0992   26.7646 H    0  0  0  0  0  0  0  0  0  0  0  0
    8.3154   14.2105   25.5390 H    0  0  0  0  0  0  0  0  0  0  0  0
    9.2859   16.4393   24.1063 H    0  0  0  0  0  0  0  0  0  0  0  0
    9.9534   15.1034   25.0050 H    0  0  0  0  0  0  0  0  0  0  0  0
   11.7240   16.4875   24.0125 H    0  0  0  0  0  0  0  0  0  0  0  0
   11.8147   14.8054   23.5210 H    0  0  0  0  0  0  0  0  0  0  0  0
   10.7879   17.1748   21.8543 H    0  0  0  0  0  0  0  0  0  0  0  0
   12.2123   16.1934   21.5375 H    0  0  0  0  0  0  0  0  0  0  0  0
    8.3594   15.9435   21.6596 H    0  0  0  0  0  0  0  0  0  0  0  0
    8.3601   14.3045   21.0868 H    0  0  0  0  0  0  0  0  0  0  0  0
   10.8158   14.1895   21.1609 H    0  0  0  0  0  0  0  0  0  0  0  0
   11.1483   13.8370   19.0786 H    0  0  0  0  0  0  0  0  0  0  0  0
   10.7175   14.9058   17.7549 H    0  0  0  0  0  0  0  0  0  0  0  0
 11 12  1  0  0  0  0
 10 11  1  0  0  0  0
  9 10  2  0  0  0  0
  8  9  1  0  0  0  0
  4  8  2  0  0  0  0
  3  4  1  0  0  0  0
  2  3  2  0  0  0  0
  1  2  1  0  0  0  0
 23  3  1  0  0  0  0
  5  4  1  0  0  0  0
  6  5  1  0  0  0  0
 24  6  1  0  0  0  0
 25  6  1  0  0  0  0
  7  6  1  0  0  0  0
 26  9  1  0  0  0  0
 27 11  1  0  0  0  0
 13 12  2  0  0  0  0
 14 12  1  0  0  0  0
 15 14  1  0  0  0  0
 28 15  1  0  0  0  0
 29 15  1  0  0  0  0
 16 15  1  0  0  0  0
 30 16  1  0  0  0  0
 31 16  1  0  0  0  0
 17 16  1  0  0  0  0
 32 17  1  0  0  0  0
 33 17  1  0  0  0  0
 18 14  1  0  0  0  0
 34 18  1  0  0  0  0
 35 18  1  0  0  0  0
 19 17  1  0  0  0  0
 20 19  1  0  0  0  0
 36 19  1  0  0  0  0
 21 20  2  0  0  0  0
 22 20  1  0  0  0  0
 37 22  1  0  0  0  0
 38 22  1  0  0  0  0
  8  7  1  0  0  0  0
 10  2  1  0  0  0  0
 19 18  1  0  0  0  0
M  END
>  <FittedScore>
-36.46

$$$$
