A71EV2A-x4308a_lowest-energy
  FITTED

 38 40     0  0  0  0  0  0  0999 V2000
    8.8469   10.2576   24.2418 CL   0  0  0  0  0  0  0  0  0  0  0  0
    7.6514   10.9487   25.2995 C    0  0  0  0  0  0  0  0  0  0  0  0
    6.7689   10.0746   25.9627 C    0  0  0  0  0  0  0  0  0  0  0  0
    5.8565   10.6105   26.8791 C    0  0  0  0  0  0  0  0  0  0  0  0
    4.9446    9.9586   27.6561 O    0  0  0  0  0  0  0  0  0  0  0  0
    4.3089   10.9704   28.4960 C    0  0  0  0  0  0  0  0  0  0  0  0
    4.8728   12.2459   28.0882 O    0  0  0  0  0  0  0  0  0  0  0  0
    5.8086   11.9615   27.1379 C    0  0  0  0  0  0  0  0  0  0  0  0
    6.6457   12.8561   26.4832 C    0  0  0  0  0  0  0  0  0  0  0  0
    7.5661   12.3469   25.5519 C    0  0  0  0  0  0  0  0  0  0  0  0
    8.3514   13.3123   24.8639 N    0  0  0  0  0  0  0  0  0  0  0  0
    8.3124   13.5636   23.5335 C    0  0  0  0  0  0  0  0  0  0  0  0
    7.5244   12.9721   22.8080 O    0  0  0  0  0  0  0  0  0  0  0  0
    9.0580   14.6359   23.1022 N    0  0  0  0  0  0  0  0  0  0  0  0
   10.0181   15.4636   23.9262 C    0  0  0  0  0  0  0  0  0  0  0  0
   11.4376   15.5668   23.3088 C    0  0  0  0  0  0  0  0  0  0  0  0
   11.3892   16.0710   21.8455 C    0  0  0  0  0  0  0  0  0  0  0  0
    8.9931   15.1333   21.6896 C    0  0  0  0  0  0  0  0  0  0  0  0
   10.3995   15.2017   21.0217 C    0  0  0  0  0  0  0  0  0  0  0  0
   10.3551   15.6496   19.5685 C    0  0  0  0  0  0  0  0  0  0  0  0
    9.8488   16.6834   19.1944 O    0  0  0  0  0  0  0  0  0  0  0  0
   10.8247   14.7611   18.6816 N    0  0  0  0  0  0  0  0  0  0  0  0
    6.8109    9.0039   25.7845 H    0  0  0  0  0  0  0  0  0  0  0  0
    4.5439   10.7699   29.5450 H    0  0  0  0  0  0  0  0  0  0  0  0
    3.2259   10.9680   28.3521 H    0  0  0  0  0  0  0  0  0  0  0  0
    6.5767   13.9238   26.6781 H    0  0  0  0  0  0  0  0  0  0  0  0
    8.7286   14.0316   25.4757 H    0  0  0  0  0  0  0  0  0  0  0  0
    9.5990   16.4659   24.0494 H    0  0  0  0  0  0  0  0  0  0  0  0
   10.1649   15.0906   24.9417 H    0  0  0  0  0  0  0  0  0  0  0  0
   12.0467   16.2469   23.9096 H    0  0  0  0  0  0  0  0  0  0  0  0
   11.9251   14.5853   23.3481 H    0  0  0  0  0  0  0  0  0  0  0  0
   11.0945   17.1257   21.8250 H    0  0  0  0  0  0  0  0  0  0  0  0
   12.3896   16.0088   21.4090 H    0  0  0  0  0  0  0  0  0  0  0  0
    8.5064   16.1110   21.6846 H    0  0  0  0  0  0  0  0  0  0  0  0
    8.3641   14.5014   21.0585 H    0  0  0  0  0  0  0  0  0  0  0  0
   10.7799   14.1747   21.0509 H    0  0  0  0  0  0  0  0  0  0  0  0
   11.0573   13.8107   18.9677 H    0  0  0  0  0  0  0  0  0  0  0  0
   10.8430   14.9928   17.6980 H    0  0  0  0  0  0  0  0  0  0  0  0
 11 12  1  0  0  0  0
 10 11  1  0  0  0  0
  9 10  2  0  0  0  0
  8  9  1  0  0  0  0
  4  8  2  0  0  0  0
  3  4  1  0  0  0  0
  2  3  2  0  0  0  0
  1  2  1  0  0  0  0
 23  3  1  0  0  0  0
  5  4  1  0  0  0  0
  6  5  1  0  0  0  0
 24  6  1  0  0  0  0
 25  6  1  0  0  0  0
  7  6  1  0  0  0  0
 26  9  1  0  0  0  0
 27 11  1  0  0  0  0
 13 12  2  0  0  0  0
 14 12  1  0  0  0  0
 15 14  1  0  0  0  0
 28 15  1  0  0  0  0
 29 15  1  0  0  0  0
 16 15  1  0  0  0  0
 30 16  1  0  0  0  0
 31 16  1  0  0  0  0
 17 16  1  0  0  0  0
 32 17  1  0  0  0  0
 33 17  1  0  0  0  0
 18 14  1  0  0  0  0
 34 18  1  0  0  0  0
 35 18  1  0  0  0  0
 19 17  1  0  0  0  0
 20 19  1  0  0  0  0
 36 19  1  0  0  0  0
 21 20  2  0  0  0  0
 22 20  1  0  0  0  0
 37 22  1  0  0  0  0
 38 22  1  0  0  0  0
  8  7  1  0  0  0  0
 10  2  1  0  0  0  0
 19 18  1  0  0  0  0
M  END
>  <FittedScore>
-36.30

$$$$
