A71EV2A-x3546a_best-RMSD
  FITTED

 40 41     0  0  0  0  0  0  0999 V2000
    9.6802   16.7429   19.3137 O    0  0  0  0  0  0  0  0  0  0  0  0
   10.2663   15.7451   19.6864 C    0  0  0  0  0  0  0  0  0  0  0  0
   10.8698   14.9370   18.7957 N    0  0  0  0  0  0  0  0  0  0  0  0
   10.2879   15.2475   21.1304 C    0  0  0  0  0  0  0  0  0  0  0  0
   11.3629   16.0106   21.9582 C    0  0  0  0  0  0  0  0  0  0  0  0
   11.3569   15.5470   23.4405 C    0  0  0  0  0  0  0  0  0  0  0  0
    9.9213   15.5439   24.0366 C    0  0  0  0  0  0  0  0  0  0  0  0
    8.8864   15.2851   21.8197 C    0  0  0  0  0  0  0  0  0  0  0  0
    8.9433   14.7398   23.2142 N    0  0  0  0  0  0  0  0  0  0  0  0
    8.2188   13.6373   23.6212 C    0  0  0  0  0  0  0  0  0  0  0  0
    7.4024   13.1010   22.8849 O    0  0  0  0  0  0  0  0  0  0  0  0
    8.5054   13.0492   25.0103 C    0  0  0  0  0  0  0  0  0  0  0  0
    7.6605   11.8281   25.3740 C    0  0  0  0  0  0  0  0  0  0  0  0
    7.9601   10.5430   24.8617 C    0  0  0  0  0  0  0  0  0  0  0  0
    9.0612   10.4001   24.0216 O    0  0  0  0  0  0  0  0  0  0  0  0
    9.4891    9.1566   23.4168 C    0  0  0  0  0  0  0  0  0  0  0  0
    6.5523   12.0035   26.2260 C    0  0  0  0  0  0  0  0  0  0  0  0
    5.7364   10.9185   26.5546 C    0  0  0  0  0  0  0  0  0  0  0  0
    4.6629   11.0981   27.3491 F    0  0  0  0  0  0  0  0  0  0  0  0
    6.0286    9.6480   26.0534 C    0  0  0  0  0  0  0  0  0  0  0  0
    7.1346    9.4563   25.2165 C    0  0  0  0  0  0  0  0  0  0  0  0
   11.2018   14.0247   19.1031 H    0  0  0  0  0  0  0  0  0  0  0  0
   10.8495   15.1667   17.8114 H    0  0  0  0  0  0  0  0  0  0  0  0
   10.5795   14.1887   21.1368 H    0  0  0  0  0  0  0  0  0  0  0  0
   12.3541   15.8256   21.5332 H    0  0  0  0  0  0  0  0  0  0  0  0
   11.1910   17.0922   21.9079 H    0  0  0  0  0  0  0  0  0  0  0  0
   11.7782   14.5383   23.5117 H    0  0  0  0  0  0  0  0  0  0  0  0
   11.9975   16.2025   24.0351 H    0  0  0  0  0  0  0  0  0  0  0  0
   10.0045   15.2191   25.0721 H    0  0  0  0  0  0  0  0  0  0  0  0
    9.5553   16.5718   24.1112 H    0  0  0  0  0  0  0  0  0  0  0  0
    8.1861   14.7345   21.1869 H    0  0  0  0  0  0  0  0  0  0  0  0
    8.4973   16.3063   21.8515 H    0  0  0  0  0  0  0  0  0  0  0  0
    9.5641   12.7792   25.0766 H    0  0  0  0  0  0  0  0  0  0  0  0
    8.3486   13.8214   25.7674 H    0  0  0  0  0  0  0  0  0  0  0  0
   10.3826    9.3563   22.8223 H    0  0  0  0  0  0  0  0  0  0  0  0
    8.7100    8.7535   22.7659 H    0  0  0  0  0  0  0  0  0  0  0  0
    9.7453    8.4184   24.1786 H    0  0  0  0  0  0  0  0  0  0  0  0
    6.3149   12.9858   26.6249 H    0  0  0  0  0  0  0  0  0  0  0  0
    5.4076    8.7950   26.3197 H    0  0  0  0  0  0  0  0  0  0  0  0
    7.3393    8.4518   24.8592 H    0  0  0  0  0  0  0  0  0  0  0  0
  9 10  1  0  0  0  0
  7  9  1  0  0  0  0
  6  7  1  0  0  0  0
  5  6  1  0  0  0  0
  4  5  1  0  0  0  0
  2  4  1  0  0  0  0
  1  2  2  0  0  0  0
  3  2  1  0  0  0  0
 22  3  1  0  0  0  0
 23  3  1  0  0  0  0
 24  4  1  0  0  0  0
 25  5  1  0  0  0  0
 26  5  1  0  0  0  0
 27  6  1  0  0  0  0
 28  6  1  0  0  0  0
 29  7  1  0  0  0  0
 30  7  1  0  0  0  0
  8  4  1  0  0  0  0
 31  8  1  0  0  0  0
 32  8  1  0  0  0  0
 11 10  2  0  0  0  0
 12 10  1  0  0  0  0
 33 12  1  0  0  0  0
 34 12  1  0  0  0  0
 13 12  1  0  0  0  0
 14 13  1  0  0  0  0
 21 14  2  0  0  0  0
 15 14  1  0  0  0  0
 16 15  1  0  0  0  0
 35 16  1  0  0  0  0
 36 16  1  0  0  0  0
 37 16  1  0  0  0  0
 17 13  2  0  0  0  0
 38 17  1  0  0  0  0
 18 17  1  0  0  0  0
 19 18  1  0  0  0  0
 20 18  2  0  0  0  0
 39 20  1  0  0  0  0
 40 21  1  0  0  0  0
  9  8  1  0  0  0  0
 21 20  1  0  0  0  0
M  END
>  <FittedScore>
-33.77

$$$$
