A71EV2A-x4467a_lowest-energy
  FITTED

 43 45     0  0  0  0  0  0  0999 V2000
    7.0033   12.7598   22.6748 O    0  0  0  0  0  0  0  0  0  0  0  0
    7.8206   13.1576   23.4921 C    0  0  0  0  0  0  0  0  0  0  0  0
    8.8228   14.0323   23.0766 N    0  0  0  0  0  0  0  0  0  0  0  0
    9.8904   14.6481   23.9399 C    0  0  0  0  0  0  0  0  0  0  0  0
   11.2986   14.7440   23.3135 C    0  0  0  0  0  0  0  0  0  0  0  0
   11.2724   15.4623   21.9499 C    0  0  0  0  0  0  0  0  0  0  0  0
    8.8372   14.6716   21.7056 C    0  0  0  0  0  0  0  0  0  0  0  0
   10.2456   14.7745   21.0138 C    0  0  0  0  0  0  0  0  0  0  0  0
   10.2223   15.4271   19.6223 C    0  0  0  0  0  0  0  0  0  0  0  0
    9.5053   16.3636   19.3118 O    0  0  0  0  0  0  0  0  0  0  0  0
   11.1437   14.9801   18.7419 N    0  0  0  0  0  0  0  0  0  0  0  0
    7.7320   12.6044   24.9593 C    0  0  0  0  0  0  0  0  0  0  0  0
    7.6335   13.7308   26.0607 C    0  0  0  0  0  0  0  0  0  0  0  0
    6.8409   13.1782   27.2637 C    0  0  0  0  0  0  0  0  0  0  0  0
    6.1365   11.9066   26.7747 C    0  0  0  0  0  0  0  0  0  0  0  0
    6.3655   11.8925   25.2571 C    0  0  0  0  0  0  0  0  0  0  0  0
    8.8235   11.5786   25.1499 N    0  0  0  0  0  0  0  0  0  0  0  0
    9.8121   11.7304   26.0970 N    0  0  0  0  0  0  0  0  0  0  0  0
   10.7155   10.6290   25.6971 C    0  0  0  0  0  0  0  0  0  0  0  0
   10.2009    9.8962   24.6542 C    0  0  0  0  0  0  0  0  0  0  0  0
    9.0257   10.5064   24.3190 C    0  0  0  0  0  0  0  0  0  0  0  0
    9.5628   15.6405   24.2618 H    0  0  0  0  0  0  0  0  0  0  0  0
   10.0670   14.0844   24.8430 H    0  0  0  0  0  0  0  0  0  0  0  0
   11.9696   15.2742   23.9975 H    0  0  0  0  0  0  0  0  0  0  0  0
   11.7018   13.7325   23.1959 H    0  0  0  0  0  0  0  0  0  0  0  0
   11.0236   16.5179   22.0847 H    0  0  0  0  0  0  0  0  0  0  0  0
   12.2742   15.4214   21.5139 H    0  0  0  0  0  0  0  0  0  0  0  0
    8.3999   15.6700   21.7994 H    0  0  0  0  0  0  0  0  0  0  0  0
    8.1877   14.1396   21.0038 H    0  0  0  0  0  0  0  0  0  0  0  0
   10.5745   13.7381   20.8664 H    0  0  0  0  0  0  0  0  0  0  0  0
   11.0377   15.2054   17.7618 H    0  0  0  0  0  0  0  0  0  0  0  0
   11.8560   14.3144   19.0124 H    0  0  0  0  0  0  0  0  0  0  0  0
    8.5907   14.1073   26.4187 H    0  0  0  0  0  0  0  0  0  0  0  0
    7.1046   14.5974   25.6536 H    0  0  0  0  0  0  0  0  0  0  0  0
    7.5138   12.9461   28.0923 H    0  0  0  0  0  0  0  0  0  0  0  0
    6.1138   13.9138   27.6102 H    0  0  0  0  0  0  0  0  0  0  0  0
    6.5762   11.0155   27.2338 H    0  0  0  0  0  0  0  0  0  0  0  0
    5.0682   11.9266   27.0081 H    0  0  0  0  0  0  0  0  0  0  0  0
    6.3089   10.8723   24.8651 H    0  0  0  0  0  0  0  0  0  0  0  0
    5.5323   12.4371   24.8002 H    0  0  0  0  0  0  0  0  0  0  0  0
   11.6576   10.4439   26.2036 H    0  0  0  0  0  0  0  0  0  0  0  0
   10.6435    9.0264   24.1861 H    0  0  0  0  0  0  0  0  0  0  0  0
    8.3596   10.1908   23.5213 H    0  0  0  0  0  0  0  0  0  0  0  0
  2  1  2  0  0  0  0
  3  2  1  0  0  0  0
  4  3  1  0  0  0  0
 22  4  1  0  0  0  0
 23  4  1  0  0  0  0
  5  4  1  0  0  0  0
 24  5  1  0  0  0  0
 25  5  1  0  0  0  0
  6  5  1  0  0  0  0
 26  6  1  0  0  0  0
 27  6  1  0  0  0  0
  7  3  1  0  0  0  0
 28  7  1  0  0  0  0
 29  7  1  0  0  0  0
  8  6  1  0  0  0  0
  9  8  1  0  0  0  0
 30  8  1  0  0  0  0
 10  9  2  0  0  0  0
 11  9  1  0  0  0  0
 31 11  1  0  0  0  0
 32 11  1  0  0  0  0
 12  2  1  0  0  0  0
 16 12  1  0  0  0  0
 13 12  1  0  0  0  0
 33 13  1  0  0  0  0
 34 13  1  0  0  0  0
 14 13  1  0  0  0  0
 35 14  1  0  0  0  0
 36 14  1  0  0  0  0
 15 14  1  0  0  0  0
 37 15  1  0  0  0  0
 38 15  1  0  0  0  0
 39 16  1  0  0  0  0
 40 16  1  0  0  0  0
 17 12  1  0  0  0  0
 21 17  1  0  0  0  0
 18 17  1  0  0  0  0
 19 18  2  0  0  0  0
 41 19  1  0  0  0  0
 20 19  1  0  0  0  0
 42 20  1  0  0  0  0
 43 21  1  0  0  0  0
  8  7  1  0  0  0  0
 16 15  1  0  0  0  0
 21 20  2  0  0  0  0
M  END
>  <FittedScore>
-30.87

$$$$
