A71EV2A-x5949a_lowest-energy
  FITTED

 43 45     0  0  0  0  0  0  0999 V2000
    4.1258   13.0356   26.5402 C    0  0  0  0  0  0  0  0  0  0  0  0
    5.2989   12.3443   27.1045 N    0  0  0  0  0  0  0  0  0  0  0  0
    5.3254   12.1508   28.5684 C    0  0  0  0  0  0  0  0  0  0  0  0
    6.0760   11.5470   26.2934 C    0  0  0  0  0  0  0  0  0  0  0  0
    5.8414   10.1564   26.2487 C    0  0  0  0  0  0  0  0  0  0  0  0
    6.6116    9.3352   25.4155 C    0  0  0  0  0  0  0  0  0  0  0  0
    7.6482    9.8617   24.6409 C    0  0  0  0  0  0  0  0  0  0  0  0
    7.8837   11.2308   24.6973 C    0  0  0  0  0  0  0  0  0  0  0  0
    7.1045   12.0788   25.4818 C    0  0  0  0  0  0  0  0  0  0  0  0
    7.5286   13.5353   25.3926 C    0  0  0  0  0  0  0  0  0  0  0  0
    8.5002   13.6879   24.1869 C    0  0  0  0  0  0  0  0  0  0  0  0
    9.6249   14.7291   24.3384 C    0  0  0  0  0  0  0  0  0  0  0  0
    9.9492   15.1672   25.4299 O    0  0  0  0  0  0  0  0  0  0  0  0
   10.3340   15.0952   23.2205 N    0  0  0  0  0  0  0  0  0  0  0  0
   11.5605   15.9214   23.2351 C    0  0  0  0  0  0  0  0  0  0  0  0
   11.8588   16.3570   21.7946 C    0  0  0  0  0  0  0  0  0  0  0  0
   11.1867   15.2747   20.9419 C    0  0  0  0  0  0  0  0  0  0  0  0
   10.7620   15.7064   19.5385 C    0  0  0  0  0  0  0  0  0  0  0  0
   11.4063   15.1056   18.5261 N    0  0  0  0  0  0  0  0  0  0  0  0
    9.8973   16.5311   19.2983 O    0  0  0  0  0  0  0  0  0  0  0  0
   10.0069   14.8020   21.8065 C    0  0  0  0  0  0  0  0  0  0  0  0
    9.1720   12.0254   23.8247 S    0  0  0  0  0  0  0  0  0  0  0  0
    4.0943   14.0790   26.8582 H    0  0  0  0  0  0  0  0  0  0  0  0
    3.1913   12.5608   26.8496 H    0  0  0  0  0  0  0  0  0  0  0  0
    4.1236   13.0437   25.4461 H    0  0  0  0  0  0  0  0  0  0  0  0
    6.2940   11.7782   28.9177 H    0  0  0  0  0  0  0  0  0  0  0  0
    4.5675   11.4287   28.8898 H    0  0  0  0  0  0  0  0  0  0  0  0
    5.1380   13.0852   29.1027 H    0  0  0  0  0  0  0  0  0  0  0  0
    5.0519    9.7030   26.8448 H    0  0  0  0  0  0  0  0  0  0  0  0
    6.4127    8.2663   25.3788 H    0  0  0  0  0  0  0  0  0  0  0  0
    8.2610    9.2140   24.0137 H    0  0  0  0  0  0  0  0  0  0  0  0
    8.0022   13.7956   26.3436 H    0  0  0  0  0  0  0  0  0  0  0  0
    6.6654   14.1957   25.2630 H    0  0  0  0  0  0  0  0  0  0  0  0
    7.8703   13.9589   23.3344 H    0  0  0  0  0  0  0  0  0  0  0  0
   12.3919   15.3380   23.6438 H    0  0  0  0  0  0  0  0  0  0  0  0
   11.4307   16.8039   23.8686 H    0  0  0  0  0  0  0  0  0  0  0  0
   12.9377   16.4010   21.6097 H    0  0  0  0  0  0  0  0  0  0  0  0
   11.4345   17.3476   21.6035 H    0  0  0  0  0  0  0  0  0  0  0  0
   11.8933   14.4357   20.8754 H    0  0  0  0  0  0  0  0  0  0  0  0
   11.1205   15.2986   17.5757 H    0  0  0  0  0  0  0  0  0  0  0  0
   12.1956   14.4789   18.6784 H    0  0  0  0  0  0  0  0  0  0  0  0
    9.8652   13.7383   21.6205 H    0  0  0  0  0  0  0  0  0  0  0  0
    9.0798   15.3170   21.5477 H    0  0  0  0  0  0  0  0  0  0  0  0
 10 11  1  0  0  0  0
  9 10  1  0  0  0  0
  8  9  2  0  0  0  0
  7  8  1  0  0  0  0
  6  7  2  0  0  0  0
  5  6  1  0  0  0  0
  4  5  2  0  0  0  0
  2  4  1  0  0  0  0
  1  2  1  0  0  0  0
 23  1  1  0  0  0  0
 24  1  1  0  0  0  0
 25  1  1  0  0  0  0
  3  2  1  0  0  0  0
 26  3  1  0  0  0  0
 27  3  1  0  0  0  0
 28  3  1  0  0  0  0
 29  5  1  0  0  0  0
 30  6  1  0  0  0  0
 31  7  1  0  0  0  0
 32 10  1  0  0  0  0
 33 10  1  0  0  0  0
 12 11  1  0  0  0  0
 22 11  1  0  0  0  0
 34 11  1  0  0  0  0
 13 12  2  0  0  0  0
 14 12  1  0  0  0  0
 15 14  1  0  0  0  0
 16 15  1  0  0  0  0
 35 15  1  0  0  0  0
 36 15  1  0  0  0  0
 17 16  1  0  0  0  0
 37 16  1  0  0  0  0
 38 16  1  0  0  0  0
 18 17  1  0  0  0  0
 21 17  1  0  0  0  0
 39 17  1  0  0  0  0
 19 18  1  0  0  0  0
 20 18  2  0  0  0  0
 40 19  1  0  0  0  0
 41 19  1  0  0  0  0
 42 21  1  0  0  0  0
 43 21  1  0  0  0  0
  9  4  1  0  0  0  0
 21 14  1  0  0  0  0
 22  8  1  0  0  0  0
M  END
>  <FittedScore>
-34.48

$$$$
