A71EV2A-x5949a_best-RMSD
  FITTED

 43 45     0  0  0  0  0  0  0999 V2000
    3.8828   13.3870   26.6591 C    0  0  0  0  0  0  0  0  0  0  0  0
    5.0491   12.7260   27.2805 N    0  0  0  0  0  0  0  0  0  0  0  0
    5.0873   12.6723   28.7544 C    0  0  0  0  0  0  0  0  0  0  0  0
    5.8178   11.8619   26.5276 C    0  0  0  0  0  0  0  0  0  0  0  0
    5.5946   10.4695   26.6229 C    0  0  0  0  0  0  0  0  0  0  0  0
    6.3354    9.5756   25.8364 C    0  0  0  0  0  0  0  0  0  0  0  0
    7.3115   10.0436   24.9523 C    0  0  0  0  0  0  0  0  0  0  0  0
    7.5338   11.4193   24.8647 C    0  0  0  0  0  0  0  0  0  0  0  0
    6.8144   12.3300   25.6366 C    0  0  0  0  0  0  0  0  0  0  0  0
    7.2434   13.7788   25.4229 C    0  0  0  0  0  0  0  0  0  0  0  0
    8.2056   13.8515   24.1937 C    0  0  0  0  0  0  0  0  0  0  0  0
    9.4654   14.7411   24.3357 C    0  0  0  0  0  0  0  0  0  0  0  0
    9.9059   15.0767   25.4229 O    0  0  0  0  0  0  0  0  0  0  0  0
   10.1636   15.0774   23.2021 N    0  0  0  0  0  0  0  0  0  0  0  0
   11.4922   15.7298   23.1918 C    0  0  0  0  0  0  0  0  0  0  0  0
   11.7898   16.1818   21.7534 C    0  0  0  0  0  0  0  0  0  0  0  0
   10.9683   15.2006   20.9119 C    0  0  0  0  0  0  0  0  0  0  0  0
   10.6362   15.6896   19.5084 C    0  0  0  0  0  0  0  0  0  0  0  0
   11.4291   15.2217   18.5377 N    0  0  0  0  0  0  0  0  0  0  0  0
    9.7589   16.4891   19.2443 O    0  0  0  0  0  0  0  0  0  0  0  0
    9.7422   14.9113   21.7937 C    0  0  0  0  0  0  0  0  0  0  0  0
    8.7039   12.1340   23.7853 S    0  0  0  0  0  0  0  0  0  0  0  0
    2.9407   13.0376   27.0886 H    0  0  0  0  0  0  0  0  0  0  0  0
    3.8073   13.2038   25.5834 H    0  0  0  0  0  0  0  0  0  0  0  0
    3.9261   14.4704   26.7946 H    0  0  0  0  0  0  0  0  0  0  0  0
    6.0189   12.2401   29.1328 H    0  0  0  0  0  0  0  0  0  0  0  0
    4.2702   12.0629   29.1521 H    0  0  0  0  0  0  0  0  0  0  0  0
    4.9971   13.6680   29.1954 H    0  0  0  0  0  0  0  0  0  0  0  0
    4.8350   10.0671   27.2907 H    0  0  0  0  0  0  0  0  0  0  0  0
    6.1497    8.5069   25.9129 H    0  0  0  0  0  0  0  0  0  0  0  0
    7.8817    9.3483   24.3427 H    0  0  0  0  0  0  0  0  0  0  0  0
    7.7187   14.1247   26.3417 H    0  0  0  0  0  0  0  0  0  0  0  0
    6.3764   14.4205   25.2552 H    0  0  0  0  0  0  0  0  0  0  0  0
    7.5900   14.1988   23.3579 H    0  0  0  0  0  0  0  0  0  0  0  0
   12.2494   15.0124   23.5304 H    0  0  0  0  0  0  0  0  0  0  0  0
   11.5249   16.5975   23.8582 H    0  0  0  0  0  0  0  0  0  0  0  0
   12.8593   16.1301   21.5212 H    0  0  0  0  0  0  0  0  0  0  0  0
   11.4448   17.2126   21.5961 H    0  0  0  0  0  0  0  0  0  0  0  0
   11.5390   14.2680   20.8295 H    0  0  0  0  0  0  0  0  0  0  0  0
   12.2319   14.6307   18.7296 H    0  0  0  0  0  0  0  0  0  0  0  0
   11.2041   15.4386   17.5790 H    0  0  0  0  0  0  0  0  0  0  0  0
    9.3822   13.9067   21.5703 H    0  0  0  0  0  0  0  0  0  0  0  0
    8.9331   15.6242   21.5941 H    0  0  0  0  0  0  0  0  0  0  0  0
 10 11  1  0  0  0  0
  9 10  1  0  0  0  0
  8  9  2  0  0  0  0
  7  8  1  0  0  0  0
  6  7  2  0  0  0  0
  5  6  1  0  0  0  0
  4  5  2  0  0  0  0
  2  4  1  0  0  0  0
  1  2  1  0  0  0  0
 23  1  1  0  0  0  0
 24  1  1  0  0  0  0
 25  1  1  0  0  0  0
  3  2  1  0  0  0  0
 26  3  1  0  0  0  0
 27  3  1  0  0  0  0
 28  3  1  0  0  0  0
 29  5  1  0  0  0  0
 30  6  1  0  0  0  0
 31  7  1  0  0  0  0
 32 10  1  0  0  0  0
 33 10  1  0  0  0  0
 12 11  1  0  0  0  0
 22 11  1  0  0  0  0
 34 11  1  0  0  0  0
 13 12  2  0  0  0  0
 14 12  1  0  0  0  0
 15 14  1  0  0  0  0
 16 15  1  0  0  0  0
 35 15  1  0  0  0  0
 36 15  1  0  0  0  0
 17 16  1  0  0  0  0
 37 16  1  0  0  0  0
 38 16  1  0  0  0  0
 18 17  1  0  0  0  0
 21 17  1  0  0  0  0
 39 17  1  0  0  0  0
 19 18  1  0  0  0  0
 20 18  2  0  0  0  0
 40 19  1  0  0  0  0
 41 19  1  0  0  0  0
 42 21  1  0  0  0  0
 43 21  1  0  0  0  0
  9  4  1  0  0  0  0
 21 14  1  0  0  0  0
 22  8  1  0  0  0  0
M  END
>  <FittedScore>
-34.85

$$$$
