A71EV2A-x6827a_lowest-energy
  FITTED

 54 56     0  0  0  0  0  0  0999 V2000
    9.6075    8.8159   23.4188 C    0  0  0  0  0  0  0  0  0  0  0  0
    9.3255   10.5261   23.9569 S    0  0  0  0  0  0  0  0  0  0  0  0
    7.7517   10.6170   24.8252 C    0  0  0  0  0  0  0  0  0  0  0  0
    7.0155    9.4487   25.1049 C    0  0  0  0  0  0  0  0  0  0  0  0
    5.7940    9.5128   25.7742 C    0  0  0  0  0  0  0  0  0  0  0  0
    5.2678   10.7376   26.2083 C    0  0  0  0  0  0  0  0  0  0  0  0
    3.9767   10.7656   26.9816 C    0  0  0  0  0  0  0  0  0  0  0  0
    3.0789   11.7250   26.7179 C    0  0  0  0  0  0  0  0  0  0  0  0
    1.7422   11.8460   27.4522 C    0  0  0  0  0  0  0  0  0  0  0  0
    1.3650   10.5748   28.1958 N    0  0  0  0  0  0  0  0  0  0  0  0
    2.5332   10.0188   28.9925 C    0  0  0  0  0  0  0  0  0  0  0  0
    3.7193    9.6860   28.0447 C    0  0  0  0  0  0  0  0  0  0  0  0
    5.9976   11.9093   25.9351 C    0  0  0  0  0  0  0  0  0  0  0  0
    7.2261   11.8635   25.2450 C    0  0  0  0  0  0  0  0  0  0  0  0
    7.9532   13.1866   24.9673 C    0  0  0  0  0  0  0  0  0  0  0  0
    7.9886   13.5918   23.4785 C    0  0  0  0  0  0  0  0  0  0  0  0
    7.1841   13.0969   22.7036 O    0  0  0  0  0  0  0  0  0  0  0  0
    8.8974   14.5386   23.0467 N    0  0  0  0  0  0  0  0  0  0  0  0
    9.7085   15.4544   23.9282 C    0  0  0  0  0  0  0  0  0  0  0  0
   11.1768   15.6600   23.4720 C    0  0  0  0  0  0  0  0  0  0  0  0
   11.2611   16.1370   21.9986 C    0  0  0  0  0  0  0  0  0  0  0  0
   10.4411   15.1862   21.0797 C    0  0  0  0  0  0  0  0  0  0  0  0
   10.4461   15.6726   19.6340 C    0  0  0  0  0  0  0  0  0  0  0  0
   10.9624   14.8259   18.7199 N    0  0  0  0  0  0  0  0  0  0  0  0
    9.9401   16.7213   19.2813 O    0  0  0  0  0  0  0  0  0  0  0  0
    8.9900   14.9651   21.6070 C    0  0  0  0  0  0  0  0  0  0  0  0
    8.7809    8.4823   22.7820 H    0  0  0  0  0  0  0  0  0  0  0  0
    9.7023    8.1629   24.2848 H    0  0  0  0  0  0  0  0  0  0  0  0
   10.5341    8.7693   22.8438 H    0  0  0  0  0  0  0  0  0  0  0  0
    7.3679    8.4715   24.8077 H    0  0  0  0  0  0  0  0  0  0  0  0
    5.2575    8.5820   25.9518 H    0  0  0  0  0  0  0  0  0  0  0  0
    3.2843   12.4608   25.9395 H    0  0  0  0  0  0  0  0  0  0  0  0
    0.9394   12.0599   26.7456 H    0  0  0  0  0  0  0  0  0  0  0  0
    1.7831   12.6705   28.1695 H    0  0  0  0  0  0  0  0  0  0  0  0
    1.0737    9.8638   27.5039 H    0  0  0  0  0  0  0  0  0  0  0  0
    0.5604   10.7492   28.8209 H    0  0  0  0  0  0  0  0  0  0  0  0
    2.2002    9.1178   29.5110 H    0  0  0  0  0  0  0  0  0  0  0  0
    2.8351   10.7527   29.7462 H    0  0  0  0  0  0  0  0  0  0  0  0
    3.5176    8.7276   27.5573 H    0  0  0  0  0  0  0  0  0  0  0  0
    4.6201    9.5408   28.6484 H    0  0  0  0  0  0  0  0  0  0  0  0
    5.6094   12.8684   26.2684 H    0  0  0  0  0  0  0  0  0  0  0  0
    8.9596   13.0764   25.3798 H    0  0  0  0  0  0  0  0  0  0  0  0
    7.5001   14.0068   25.5331 H    0  0  0  0  0  0  0  0  0  0  0  0
    9.7560   15.1249   24.9634 H    0  0  0  0  0  0  0  0  0  0  0  0
    9.2060   16.4267   23.9687 H    0  0  0  0  0  0  0  0  0  0  0  0
   11.7344   14.7261   23.5902 H    0  0  0  0  0  0  0  0  0  0  0  0
   11.6595   16.3982   24.1185 H    0  0  0  0  0  0  0  0  0  0  0  0
   12.3065   16.1447   21.6801 H    0  0  0  0  0  0  0  0  0  0  0  0
   10.8998   17.1702   21.9220 H    0  0  0  0  0  0  0  0  0  0  0  0
   10.9385   14.2094   21.1259 H    0  0  0  0  0  0  0  0  0  0  0  0
   11.2107   13.8740   18.9917 H    0  0  0  0  0  0  0  0  0  0  0  0
   10.9831   15.0948   17.7397 H    0  0  0  0  0  0  0  0  0  0  0  0
    8.5313   14.2219   20.9447 H    0  0  0  0  0  0  0  0  0  0  0  0
    8.3937   15.8743   21.4837 H    0  0  0  0  0  0  0  0  0  0  0  0
 13 14  2  0  0  0  0
  6 13  1  0  0  0  0
  5  6  2  0  0  0  0
  4  5  1  0  0  0  0
  3  4  2  0  0  0  0
  2  3  1  0  0  0  0
  1  2  1  0  0  0  0
 27  1  1  0  0  0  0
 28  1  1  0  0  0  0
 29  1  1  0  0  0  0
 30  4  1  0  0  0  0
 31  5  1  0  0  0  0
  7  6  1  0  0  0  0
  8  7  2  0  0  0  0
  9  8  1  0  0  0  0
 32  8  1  0  0  0  0
 10  9  1  0  0  0  0
 33  9  1  0  0  0  0
 34  9  1  0  0  0  0
 11 10  1  0  0  0  0
 35 10  1  0  0  0  0
 36 10  1  0  0  0  0
 12 11  1  0  0  0  0
 37 11  1  0  0  0  0
 38 11  1  0  0  0  0
 39 12  1  0  0  0  0
 40 12  1  0  0  0  0
 41 13  1  0  0  0  0
 15 14  1  0  0  0  0
 16 15  1  0  0  0  0
 42 15  1  0  0  0  0
 43 15  1  0  0  0  0
 17 16  2  0  0  0  0
 18 16  1  0  0  0  0
 19 18  1  0  0  0  0
 20 19  1  0  0  0  0
 44 19  1  0  0  0  0
 45 19  1  0  0  0  0
 21 20  1  0  0  0  0
 46 20  1  0  0  0  0
 47 20  1  0  0  0  0
 22 21  1  0  0  0  0
 48 21  1  0  0  0  0
 49 21  1  0  0  0  0
 23 22  1  0  0  0  0
 26 22  1  0  0  0  0
 50 22  1  0  0  0  0
 24 23  1  0  0  0  0
 25 23  2  0  0  0  0
 51 24  1  0  0  0  0
 52 24  1  0  0  0  0
 53 26  1  0  0  0  0
 54 26  1  0  0  0  0
 12  7  1  0  0  0  0
 14  3  1  0  0  0  0
 26 18  1  0  0  0  0
M  CHG  1  10   1
M  END
>  <FittedScore>
-35.89

$$$$
