A71EV2A-x6827a_best-RMSD
  FITTED

 54 56     0  0  0  0  0  0  0999 V2000
    9.6547    8.6907   23.4904 C    0  0  0  0  0  0  0  0  0  0  0  0
    9.3867   10.4154   24.0034 S    0  0  0  0  0  0  0  0  0  0  0  0
    7.8261   10.5378   24.8846 C    0  0  0  0  0  0  0  0  0  0  0  0
    7.0500    9.3974   25.1179 C    0  0  0  0  0  0  0  0  0  0  0  0
    5.8632    9.4694   25.8433 C    0  0  0  0  0  0  0  0  0  0  0  0
    5.3854   10.6789   26.3933 C    0  0  0  0  0  0  0  0  0  0  0  0
    4.1071   10.6785   27.2386 C    0  0  0  0  0  0  0  0  0  0  0  0
    3.5628   11.8230   27.6937 C    0  0  0  0  0  0  0  0  0  0  0  0
    2.2730   11.8837   28.5071 C    0  0  0  0  0  0  0  0  0  0  0  0
    1.3920   10.6808   28.2271 N    0  0  0  0  0  0  0  0  0  0  0  0
    2.1493    9.3921   28.4593 C    0  0  0  0  0  0  0  0  0  0  0  0
    3.4197    9.3313   27.5633 C    0  0  0  0  0  0  0  0  0  0  0  0
    6.1556   11.8337   26.1113 C    0  0  0  0  0  0  0  0  0  0  0  0
    7.3510   11.7819   25.3641 C    0  0  0  0  0  0  0  0  0  0  0  0
    8.1016   13.0939   25.0881 C    0  0  0  0  0  0  0  0  0  0  0  0
    8.0658   13.5554   23.6160 C    0  0  0  0  0  0  0  0  0  0  0  0
    7.2129   13.1022   22.8636 O    0  0  0  0  0  0  0  0  0  0  0  0
    8.9680   14.5082   23.1766 N    0  0  0  0  0  0  0  0  0  0  0  0
    9.8595   15.3573   24.0473 C    0  0  0  0  0  0  0  0  0  0  0  0
   11.3207   15.4791   23.5318 C    0  0  0  0  0  0  0  0  0  0  0  0
   11.3687   15.9962   22.0687 C    0  0  0  0  0  0  0  0  0  0  0  0
   10.4498   15.1333   21.1568 C    0  0  0  0  0  0  0  0  0  0  0  0
   10.4369   15.6608   19.7181 C    0  0  0  0  0  0  0  0  0  0  0  0
   10.8493   14.8020   18.7655 N    0  0  0  0  0  0  0  0  0  0  0  0
    9.9730   16.7398   19.3986 O    0  0  0  0  0  0  0  0  0  0  0  0
    9.0106   14.9917   21.7530 C    0  0  0  0  0  0  0  0  0  0  0  0
    9.6948    8.0371   24.3628 H    0  0  0  0  0  0  0  0  0  0  0  0
   10.6076    8.6220   22.9642 H    0  0  0  0  0  0  0  0  0  0  0  0
    8.8581    8.3727   22.8144 H    0  0  0  0  0  0  0  0  0  0  0  0
    7.3404    8.4232   24.7474 H    0  0  0  0  0  0  0  0  0  0  0  0
    5.3393    8.5277   25.9685 H    0  0  0  0  0  0  0  0  0  0  0  0
    4.0063   12.7905   27.4956 H    0  0  0  0  0  0  0  0  0  0  0  0
    1.6999   12.7799   28.2609 H    0  0  0  0  0  0  0  0  0  0  0  0
    2.5000   11.9220   29.5772 H    0  0  0  0  0  0  0  0  0  0  0  0
    1.0955   10.7004   27.2362 H    0  0  0  0  0  0  0  0  0  0  0  0
    0.5439   10.7101   28.8168 H    0  0  0  0  0  0  0  0  0  0  0  0
    1.4767    8.5623   28.2255 H    0  0  0  0  0  0  0  0  0  0  0  0
    2.4150    9.3198   29.5185 H    0  0  0  0  0  0  0  0  0  0  0  0
    3.1236    8.8605   26.6211 H    0  0  0  0  0  0  0  0  0  0  0  0
    4.1341    8.6560   28.0443 H    0  0  0  0  0  0  0  0  0  0  0  0
    5.8500   12.8078   26.4705 H    0  0  0  0  0  0  0  0  0  0  0  0
    9.1251   12.9401   25.4395 H    0  0  0  0  0  0  0  0  0  0  0  0
    7.7068   13.9058   25.7052 H    0  0  0  0  0  0  0  0  0  0  0  0
    9.9268   15.0066   25.0747 H    0  0  0  0  0  0  0  0  0  0  0  0
    9.4203   16.3574   24.1228 H    0  0  0  0  0  0  0  0  0  0  0  0
   11.8150   14.5043   23.5982 H    0  0  0  0  0  0  0  0  0  0  0  0
   11.8817   16.1602   24.1782 H    0  0  0  0  0  0  0  0  0  0  0  0
   12.3989   15.9473   21.7041 H    0  0  0  0  0  0  0  0  0  0  0  0
   11.0708   17.0512   22.0374 H    0  0  0  0  0  0  0  0  0  0  0  0
   10.8763   14.1219   21.1600 H    0  0  0  0  0  0  0  0  0  0  0  0
   10.7753   15.0608   17.7887 H    0  0  0  0  0  0  0  0  0  0  0  0
   11.0477   13.8301   19.0072 H    0  0  0  0  0  0  0  0  0  0  0  0
    8.4627   14.3198   21.0866 H    0  0  0  0  0  0  0  0  0  0  0  0
    8.4846   15.9508   21.6989 H    0  0  0  0  0  0  0  0  0  0  0  0
 13 14  2  0  0  0  0
  6 13  1  0  0  0  0
  5  6  2  0  0  0  0
  4  5  1  0  0  0  0
  3  4  2  0  0  0  0
  2  3  1  0  0  0  0
  1  2  1  0  0  0  0
 27  1  1  0  0  0  0
 28  1  1  0  0  0  0
 29  1  1  0  0  0  0
 30  4  1  0  0  0  0
 31  5  1  0  0  0  0
  7  6  1  0  0  0  0
  8  7  2  0  0  0  0
  9  8  1  0  0  0  0
 32  8  1  0  0  0  0
 10  9  1  0  0  0  0
 33  9  1  0  0  0  0
 34  9  1  0  0  0  0
 11 10  1  0  0  0  0
 35 10  1  0  0  0  0
 36 10  1  0  0  0  0
 12 11  1  0  0  0  0
 37 11  1  0  0  0  0
 38 11  1  0  0  0  0
 39 12  1  0  0  0  0
 40 12  1  0  0  0  0
 41 13  1  0  0  0  0
 15 14  1  0  0  0  0
 16 15  1  0  0  0  0
 42 15  1  0  0  0  0
 43 15  1  0  0  0  0
 17 16  2  0  0  0  0
 18 16  1  0  0  0  0
 19 18  1  0  0  0  0
 20 19  1  0  0  0  0
 44 19  1  0  0  0  0
 45 19  1  0  0  0  0
 21 20  1  0  0  0  0
 46 20  1  0  0  0  0
 47 20  1  0  0  0  0
 22 21  1  0  0  0  0
 48 21  1  0  0  0  0
 49 21  1  0  0  0  0
 23 22  1  0  0  0  0
 26 22  1  0  0  0  0
 50 22  1  0  0  0  0
 24 23  1  0  0  0  0
 25 23  2  0  0  0  0
 51 24  1  0  0  0  0
 52 24  1  0  0  0  0
 53 26  1  0  0  0  0
 54 26  1  0  0  0  0
 12  7  1  0  0  0  0
 14  3  1  0  0  0  0
 26 18  1  0  0  0  0
M  CHG  1  10   1
M  END
>  <FittedScore>
-35.21

$$$$
