A71EV2A-x5744a_best-RMSD
  FITTED

 39 41     0  0  0  0  0  0  0999 V2000
    6.4718   16.0380   23.2922 C    0  0  0  0  0  0  0  0  0  0  0  0
    7.7228   15.4011   23.9761 C    0  0  0  0  0  0  0  0  0  0  0  0
    7.5335   13.9184   24.3932 C    0  0  0  0  0  0  0  0  0  0  0  0
    6.5685   13.6051   25.3944 C    0  0  0  0  0  0  0  0  0  0  0  0
    6.2959   12.2725   25.7664 C    0  0  0  0  0  0  0  0  0  0  0  0
    7.0247   11.2637   25.1387 C    0  0  0  0  0  0  0  0  0  0  0  0
    6.9597    9.9067   25.2215 N    0  0  0  0  0  0  0  0  0  0  0  0
    7.9022    9.3337   24.4133 N    0  0  0  0  0  0  0  0  0  0  0  0
    8.5901   10.2655   23.8250 C    0  0  0  0  0  0  0  0  0  0  0  0
    8.0146   11.5521   24.2329 C    0  0  0  0  0  0  0  0  0  0  0  0
    8.2847   12.8555   23.8217 C    0  0  0  0  0  0  0  0  0  0  0  0
    9.0524   15.6574   23.2920 N    0  0  0  0  0  0  0  0  0  0  0  0
    9.0247   15.6189   21.8033 C    0  0  0  0  0  0  0  0  0  0  0  0
   10.4171   15.4820   21.1162 C    0  0  0  0  0  0  0  0  0  0  0  0
   10.3285   15.8276   19.6393 C    0  0  0  0  0  0  0  0  0  0  0  0
   10.6624   14.8475   18.7797 N    0  0  0  0  0  0  0  0  0  0  0  0
    9.9232   16.9057   19.2412 O    0  0  0  0  0  0  0  0  0  0  0  0
   11.4721   16.3774   21.8087 C    0  0  0  0  0  0  0  0  0  0  0  0
   11.5667   16.0058   23.3002 C    0  0  0  0  0  0  0  0  0  0  0  0
   10.2217   15.7987   24.0060 C    0  0  0  0  0  0  0  0  0  0  0  0
   10.2395   15.6513   25.2060 O    0  0  0  0  0  0  0  0  0  0  0  0
    5.6174   16.0502   23.9734 H    0  0  0  0  0  0  0  0  0  0  0  0
    6.1751   15.4734   22.4022 H    0  0  0  0  0  0  0  0  0  0  0  0
    6.6674   17.0769   23.0075 H    0  0  0  0  0  0  0  0  0  0  0  0
    7.7641   15.9614   24.9154 H    0  0  0  0  0  0  0  0  0  0  0  0
    6.0155   14.4011   25.8853 H    0  0  0  0  0  0  0  0  0  0  0  0
    5.5408   12.0432   26.5120 H    0  0  0  0  0  0  0  0  0  0  0  0
    6.3673    9.3787   25.8664 H    0  0  0  0  0  0  0  0  0  0  0  0
    9.4170   10.0910   23.1437 H    0  0  0  0  0  0  0  0  0  0  0  0
    9.0576   13.0142   23.0750 H    0  0  0  0  0  0  0  0  0  0  0  0
    8.5474   16.5442   21.4656 H    0  0  0  0  0  0  0  0  0  0  0  0
    8.3995   14.7939   21.4502 H    0  0  0  0  0  0  0  0  0  0  0  0
   10.7393   14.4363   21.2262 H    0  0  0  0  0  0  0  0  0  0  0  0
   10.6357   15.0212   17.7816 H    0  0  0  0  0  0  0  0  0  0  0  0
   10.8978   13.9109   19.1121 H    0  0  0  0  0  0  0  0  0  0  0  0
   11.2012   17.4328   21.7156 H    0  0  0  0  0  0  0  0  0  0  0  0
   12.4468   16.2532   21.3301 H    0  0  0  0  0  0  0  0  0  0  0  0
   12.0996   16.8075   23.8142 H    0  0  0  0  0  0  0  0  0  0  0  0
   12.1751   15.1036   23.4113 H    0  0  0  0  0  0  0  0  0  0  0  0
  2 12  1  0  0  0  0
  1  2  1  0  0  0  0
 22  1  1  0  0  0  0
 23  1  1  0  0  0  0
 24  1  1  0  0  0  0
  3  2  1  0  0  0  0
 25  2  1  0  0  0  0
  4  3  2  0  0  0  0
  5  4  1  0  0  0  0
 26  4  1  0  0  0  0
  6  5  2  0  0  0  0
 27  5  1  0  0  0  0
  7  6  1  0  0  0  0
  8  7  1  0  0  0  0
 28  7  1  0  0  0  0
  9  8  2  0  0  0  0
 10  9  1  0  0  0  0
 29  9  1  0  0  0  0
 11 10  2  0  0  0  0
 30 11  1  0  0  0  0
 13 12  1  0  0  0  0
 14 13  1  0  0  0  0
 31 13  1  0  0  0  0
 32 13  1  0  0  0  0
 15 14  1  0  0  0  0
 18 14  1  0  0  0  0
 33 14  1  0  0  0  0
 16 15  1  0  0  0  0
 17 15  2  0  0  0  0
 34 16  1  0  0  0  0
 35 16  1  0  0  0  0
 19 18  1  0  0  0  0
 36 18  1  0  0  0  0
 37 18  1  0  0  0  0
 20 19  1  0  0  0  0
 38 19  1  0  0  0  0
 39 19  1  0  0  0  0
 21 20  2  0  0  0  0
 10  6  1  0  0  0  0
 11  3  1  0  0  0  0
 20 12  1  0  0  0  0
M  END
>  <FittedScore>
-35.52

$$$$
