A71EV2A-x7035a_lowest-energy
  FITTED

 50 51     0  0  0  0  0  0  0999 V2000
    9.1631    8.6274   23.3838 C    0  0  0  0  0  0  0  0  0  0  0  0
    9.1019   10.4007   23.7469 S    0  0  0  0  0  0  0  0  0  0  0  0
    7.6571   10.7259   24.7666 C    0  0  0  0  0  0  0  0  0  0  0  0
    7.0664    9.6949   25.5256 C    0  0  0  0  0  0  0  0  0  0  0  0
    6.0574    9.9654   26.4546 C    0  0  0  0  0  0  0  0  0  0  0  0
    5.6094   11.2744   26.6300 C    0  0  0  0  0  0  0  0  0  0  0  0
    6.1457   12.3037   25.8517 C    0  0  0  0  0  0  0  0  0  0  0  0
    7.1373   12.0450   24.8708 C    0  0  0  0  0  0  0  0  0  0  0  0
    7.6185   13.1563   23.9033 C    0  0  0  0  0  0  0  0  0  0  0  0
    6.6273   14.2239   23.7549 N    0  0  0  0  0  0  0  0  0  0  0  0
    5.5971   14.3184   22.8843 C    0  0  0  0  0  0  0  0  0  0  0  0
    5.3603   13.4896   22.0208 O    0  0  0  0  0  0  0  0  0  0  0  0
    4.6939   15.5266   23.1439 C    0  0  0  0  0  0  0  0  0  0  0  0
    5.4588   16.8803   23.1263 C    0  0  0  0  0  0  0  0  0  0  0  0
    3.8248   15.3405   24.4156 C    0  0  0  0  0  0  0  0  0  0  0  0
    8.9546   13.8161   24.2926 C    0  0  0  0  0  0  0  0  0  0  0  0
    9.3207   13.8345   25.4541 O    0  0  0  0  0  0  0  0  0  0  0  0
    9.6581   14.5026   23.3284 N    0  0  0  0  0  0  0  0  0  0  0  0
   10.8396   15.3666   23.5655 C    0  0  0  0  0  0  0  0  0  0  0  0
   11.2764   15.9958   22.2247 C    0  0  0  0  0  0  0  0  0  0  0  0
   10.6524   15.0423   21.1981 C    0  0  0  0  0  0  0  0  0  0  0  0
   10.4330   15.5903   19.7909 C    0  0  0  0  0  0  0  0  0  0  0  0
   10.8341   14.7765   18.7926 N    0  0  0  0  0  0  0  0  0  0  0  0
    9.7355   16.5559   19.5471 O    0  0  0  0  0  0  0  0  0  0  0  0
    9.3705   14.5485   21.8809 C    0  0  0  0  0  0  0  0  0  0  0  0
    9.9488    8.4482   22.6495 H    0  0  0  0  0  0  0  0  0  0  0  0
    8.2086    8.2976   22.9684 H    0  0  0  0  0  0  0  0  0  0  0  0
    9.4045    8.0712   24.2904 H    0  0  0  0  0  0  0  0  0  0  0  0
    7.4147    8.6709   25.4523 H    0  0  0  0  0  0  0  0  0  0  0  0
    5.6355    9.1639   27.0553 H    0  0  0  0  0  0  0  0  0  0  0  0
    4.8398   11.4975   27.3615 H    0  0  0  0  0  0  0  0  0  0  0  0
    5.7621   13.3056   26.0228 H    0  0  0  0  0  0  0  0  0  0  0  0
    7.6997   12.6805   22.9267 H    0  0  0  0  0  0  0  0  0  0  0  0
    6.6749   14.9326   24.4786 H    0  0  0  0  0  0  0  0  0  0  0  0
    3.9862   15.5781   22.3072 H    0  0  0  0  0  0  0  0  0  0  0  0
    6.1024   17.0048   23.9998 H    0  0  0  0  0  0  0  0  0  0  0  0
    4.7547   17.7145   23.1136 H    0  0  0  0  0  0  0  0  0  0  0  0
    6.0813   16.9608   22.2299 H    0  0  0  0  0  0  0  0  0  0  0  0
    4.4372   15.3655   25.3193 H    0  0  0  0  0  0  0  0  0  0  0  0
    3.2940   14.3839   24.3900 H    0  0  0  0  0  0  0  0  0  0  0  0
    3.0725   16.1293   24.4931 H    0  0  0  0  0  0  0  0  0  0  0  0
   11.6523   14.7628   23.9853 H    0  0  0  0  0  0  0  0  0  0  0  0
   10.5938   16.1502   24.2874 H    0  0  0  0  0  0  0  0  0  0  0  0
   12.3666   16.0216   22.1323 H    0  0  0  0  0  0  0  0  0  0  0  0
   10.8925   17.0177   22.1212 H    0  0  0  0  0  0  0  0  0  0  0  0
   11.3304   14.1800   21.1403 H    0  0  0  0  0  0  0  0  0  0  0  0
   10.8005   15.0912   17.8282 H    0  0  0  0  0  0  0  0  0  0  0  0
   11.0888   13.8062   18.9881 H    0  0  0  0  0  0  0  0  0  0  0  0
    9.1364   13.5578   21.4852 H    0  0  0  0  0  0  0  0  0  0  0  0
    8.5200   15.2099   21.6908 H    0  0  0  0  0  0  0  0  0  0  0  0
  8  9  1  0  0  0  0
  7  8  2  0  0  0  0
  6  7  1  0  0  0  0
  5  6  2  0  0  0  0
  4  5  1  0  0  0  0
  3  4  2  0  0  0  0
  2  3  1  0  0  0  0
  1  2  1  0  0  0  0
 26  1  1  0  0  0  0
 27  1  1  0  0  0  0
 28  1  1  0  0  0  0
 29  4  1  0  0  0  0
 30  5  1  0  0  0  0
 31  6  1  0  0  0  0
 32  7  1  0  0  0  0
 10  9  1  0  0  0  0
 16  9  1  0  0  0  0
 33  9  1  0  0  0  0
 11 10  1  0  0  0  0
 34 10  1  0  0  0  0
 12 11  2  0  0  0  0
 13 11  1  0  0  0  0
 14 13  1  0  0  0  0
 15 13  1  0  0  0  0
 35 13  1  0  0  0  0
 36 14  1  0  0  0  0
 37 14  1  0  0  0  0
 38 14  1  0  0  0  0
 39 15  1  0  0  0  0
 40 15  1  0  0  0  0
 41 15  1  0  0  0  0
 17 16  2  0  0  0  0
 18 16  1  0  0  0  0
 19 18  1  0  0  0  0
 20 19  1  0  0  0  0
 42 19  1  0  0  0  0
 43 19  1  0  0  0  0
 21 20  1  0  0  0  0
 44 20  1  0  0  0  0
 45 20  1  0  0  0  0
 22 21  1  0  0  0  0
 25 21  1  0  0  0  0
 46 21  1  0  0  0  0
 23 22  1  0  0  0  0
 24 22  2  0  0  0  0
 47 23  1  0  0  0  0
 48 23  1  0  0  0  0
 49 25  1  0  0  0  0
 50 25  1  0  0  0  0
  8  3  1  0  0  0  0
 25 18  1  0  0  0  0
M  END
>  <FittedScore>
-40.29

$$$$
