A71EV2A-x3977a_lowest-energy
  FITTED

 36 36     0  0  0  0  0  0  0999 V2000
    9.7361   16.6111   19.3469 O    0  0  0  0  0  0  0  0  0  0  0  0
   10.3405   15.6084   19.6827 C    0  0  0  0  0  0  0  0  0  0  0  0
   10.7556   14.7061   18.7761 N    0  0  0  0  0  0  0  0  0  0  0  0
   10.5431   15.2022   21.1344 C    0  0  0  0  0  0  0  0  0  0  0  0
    9.2236   15.2592   21.9573 C    0  0  0  0  0  0  0  0  0  0  0  0
    9.2975   14.6010   23.2992 N    0  0  0  0  0  0  0  0  0  0  0  0
   10.2975   15.2604   24.2042 C    0  0  0  0  0  0  0  0  0  0  0  0
    8.5131   13.5176   23.6566 C    0  0  0  0  0  0  0  0  0  0  0  0
    7.6504   13.0573   22.9177 O    0  0  0  0  0  0  0  0  0  0  0  0
    8.7805   12.8676   25.0224 C    0  0  0  0  0  0  0  0  0  0  0  0
    7.8187   11.7383   25.3961 C    0  0  0  0  0  0  0  0  0  0  0  0
    8.0219   10.4135   24.9470 C    0  0  0  0  0  0  0  0  0  0  0  0
    9.1243   10.1498   24.1363 O    0  0  0  0  0  0  0  0  0  0  0  0
    9.3574    8.9174   23.4131 C    0  0  0  0  0  0  0  0  0  0  0  0
    6.7097   12.0399   26.2103 C    0  0  0  0  0  0  0  0  0  0  0  0
    5.8337   11.0300   26.6204 C    0  0  0  0  0  0  0  0  0  0  0  0
    6.0424    9.7137   26.2001 C    0  0  0  0  0  0  0  0  0  0  0  0
    7.1123    9.4128   25.3490 C    0  0  0  0  0  0  0  0  0  0  0  0
   10.6913   14.9072   17.7849 H    0  0  0  0  0  0  0  0  0  0  0  0
   11.0312   13.7728   19.0819 H    0  0  0  0  0  0  0  0  0  0  0  0
   10.9558   14.1896   21.2077 H    0  0  0  0  0  0  0  0  0  0  0  0
   11.2966   15.8686   21.5577 H    0  0  0  0  0  0  0  0  0  0  0  0
    8.9289   16.3043   22.0925 H    0  0  0  0  0  0  0  0  0  0  0  0
    8.4284   14.8239   21.3422 H    0  0  0  0  0  0  0  0  0  0  0  0
   10.6980   16.1989   23.8132 H    0  0  0  0  0  0  0  0  0  0  0  0
   11.1436   14.5927   24.3848 H    0  0  0  0  0  0  0  0  0  0  0  0
    9.8428   15.5283   25.1584 H    0  0  0  0  0  0  0  0  0  0  0  0
    9.8116   12.4976   25.0512 H    0  0  0  0  0  0  0  0  0  0  0  0
    8.7289   13.6198   25.8133 H    0  0  0  0  0  0  0  0  0  0  0  0
   10.2827    9.0222   22.8421 H    0  0  0  0  0  0  0  0  0  0  0  0
    8.5396    8.7132   22.7200 H    0  0  0  0  0  0  0  0  0  0  0  0
    9.4837    8.0852   24.1087 H    0  0  0  0  0  0  0  0  0  0  0  0
    6.5265   13.0625   26.5352 H    0  0  0  0  0  0  0  0  0  0  0  0
    4.9906   11.2693   27.2643 H    0  0  0  0  0  0  0  0  0  0  0  0
    5.3642    8.9262   26.5208 H    0  0  0  0  0  0  0  0  0  0  0  0
    7.2265    8.3818   25.0211 H    0  0  0  0  0  0  0  0  0  0  0  0
  6  8  1  0  0  0  0
  5  6  1  0  0  0  0
  4  5  1  0  0  0  0
  2  4  1  0  0  0  0
  1  2  2  0  0  0  0
  3  2  1  0  0  0  0
 19  3  1  0  0  0  0
 20  3  1  0  0  0  0
 21  4  1  0  0  0  0
 22  4  1  0  0  0  0
 23  5  1  0  0  0  0
 24  5  1  0  0  0  0
  7  6  1  0  0  0  0
 25  7  1  0  0  0  0
 26  7  1  0  0  0  0
 27  7  1  0  0  0  0
  9  8  2  0  0  0  0
 10  8  1  0  0  0  0
 28 10  1  0  0  0  0
 29 10  1  0  0  0  0
 11 10  1  0  0  0  0
 12 11  1  0  0  0  0
 18 12  2  0  0  0  0
 13 12  1  0  0  0  0
 14 13  1  0  0  0  0
 30 14  1  0  0  0  0
 31 14  1  0  0  0  0
 32 14  1  0  0  0  0
 15 11  2  0  0  0  0
 33 15  1  0  0  0  0
 16 15  1  0  0  0  0
 34 16  1  0  0  0  0
 17 16  2  0  0  0  0
 35 17  1  0  0  0  0
 36 18  1  0  0  0  0
 18 17  1  0  0  0  0
M  END
>  <FittedScore>
-29.41

$$$$
