A71EV2A-x4824b_lowest-energy
  FITTED

 38 39     0  0  0  0  0  0  0999 V2000
    9.9270   16.7912   19.4284 O    0  0  0  0  0  0  0  0  0  0  0  0
   10.3781   15.7195   19.7805 C    0  0  0  0  0  0  0  0  0  0  0  0
   10.7801   14.8150   18.8649 N    0  0  0  0  0  0  0  0  0  0  0  0
   10.3639   15.2287   21.2294 C    0  0  0  0  0  0  0  0  0  0  0  0
   11.3552   16.0212   22.1289 C    0  0  0  0  0  0  0  0  0  0  0  0
   11.2647   15.5532   23.6096 C    0  0  0  0  0  0  0  0  0  0  0  0
    9.8017   15.4732   24.1350 C    0  0  0  0  0  0  0  0  0  0  0  0
    8.9270   15.2819   21.8318 C    0  0  0  0  0  0  0  0  0  0  0  0
    8.8693   14.7321   23.2214 N    0  0  0  0  0  0  0  0  0  0  0  0
    8.0686   13.6774   23.5779 C    0  0  0  0  0  0  0  0  0  0  0  0
    7.3226   13.1460   22.7734 O    0  0  0  0  0  0  0  0  0  0  0  0
    8.1770   13.2154   24.8564 O    0  0  0  0  0  0  0  0  0  0  0  0
    7.5616   12.0626   25.3320 C    0  0  0  0  0  0  0  0  0  0  0  0
    8.0064   10.7620   24.9747 C    0  0  0  0  0  0  0  0  0  0  0  0
    9.4366   10.5665   23.9040 S    0  0  0  0  0  0  0  0  0  0  0  0
    9.5212    8.8205   23.3793 C    0  0  0  0  0  0  0  0  0  0  0  0
    6.4826   12.2259   26.2161 C    0  0  0  0  0  0  0  0  0  0  0  0
    5.8205   11.1065   26.7378 C    0  0  0  0  0  0  0  0  0  0  0  0
    6.2380    9.8188   26.3780 C    0  0  0  0  0  0  0  0  0  0  0  0
    7.3201    9.6481   25.5046 C    0  0  0  0  0  0  0  0  0  0  0  0
   10.9856   13.8614   19.1590 H    0  0  0  0  0  0  0  0  0  0  0  0
   10.7187   15.0277   17.8766 H    0  0  0  0  0  0  0  0  0  0  0  0
   10.6790   14.1766   21.2494 H    0  0  0  0  0  0  0  0  0  0  0  0
   12.3768   15.8786   21.7674 H    0  0  0  0  0  0  0  0  0  0  0  0
   11.1413   17.0942   22.0723 H    0  0  0  0  0  0  0  0  0  0  0  0
   11.7324   14.5696   23.7090 H    0  0  0  0  0  0  0  0  0  0  0  0
   11.8392   16.2363   24.2437 H    0  0  0  0  0  0  0  0  0  0  0  0
    9.8490   15.0304   25.1312 H    0  0  0  0  0  0  0  0  0  0  0  0
    9.4118   16.4822   24.2927 H    0  0  0  0  0  0  0  0  0  0  0  0
    8.2588   14.7552   21.1435 H    0  0  0  0  0  0  0  0  0  0  0  0
    8.5624   16.3150   21.8450 H    0  0  0  0  0  0  0  0  0  0  0  0
   10.3304    8.7060   22.6609 H    0  0  0  0  0  0  0  0  0  0  0  0
    8.5870    8.5116   22.9063 H    0  0  0  0  0  0  0  0  0  0  0  0
    9.7317    8.1835   24.2355 H    0  0  0  0  0  0  0  0  0  0  0  0
    6.1566   13.2224   26.5011 H    0  0  0  0  0  0  0  0  0  0  0  0
    4.9863   11.2350   27.4196 H    0  0  0  0  0  0  0  0  0  0  0  0
    5.7280    8.9467   26.7844 H    0  0  0  0  0  0  0  0  0  0  0  0
    7.6170    8.6332   25.2699 H    0  0  0  0  0  0  0  0  0  0  0  0
  9 10  1  0  0  0  0
  7  9  1  0  0  0  0
  6  7  1  0  0  0  0
  5  6  1  0  0  0  0
  4  5  1  0  0  0  0
  2  4  1  0  0  0  0
  1  2  2  0  0  0  0
  3  2  1  0  0  0  0
 21  3  1  0  0  0  0
 22  3  1  0  0  0  0
 23  4  1  0  0  0  0
 24  5  1  0  0  0  0
 25  5  1  0  0  0  0
 26  6  1  0  0  0  0
 27  6  1  0  0  0  0
 28  7  1  0  0  0  0
 29  7  1  0  0  0  0
  8  4  1  0  0  0  0
 30  8  1  0  0  0  0
 31  8  1  0  0  0  0
 11 10  2  0  0  0  0
 12 10  1  0  0  0  0
 13 12  1  0  0  0  0
 14 13  1  0  0  0  0
 20 14  2  0  0  0  0
 15 14  1  0  0  0  0
 16 15  1  0  0  0  0
 32 16  1  0  0  0  0
 33 16  1  0  0  0  0
 34 16  1  0  0  0  0
 17 13  2  0  0  0  0
 35 17  1  0  0  0  0
 18 17  1  0  0  0  0
 36 18  1  0  0  0  0
 19 18  2  0  0  0  0
 37 19  1  0  0  0  0
 38 20  1  0  0  0  0
  9  8  1  0  0  0  0
 20 19  1  0  0  0  0
M  END
>  <FittedScore>
-33.91

$$$$
