A71EV2A-x4824b_best-RMSD
  FITTED

 38 39     0  0  0  0  0  0  0999 V2000
   10.0623   16.7443   19.3543 O    0  0  0  0  0  0  0  0  0  0  0  0
   10.4827   15.6556   19.6896 C    0  0  0  0  0  0  0  0  0  0  0  0
   10.8875   14.7619   18.7673 N    0  0  0  0  0  0  0  0  0  0  0  0
   10.4513   15.1409   21.1258 C    0  0  0  0  0  0  0  0  0  0  0  0
   11.5163   15.8503   22.0095 C    0  0  0  0  0  0  0  0  0  0  0  0
   11.4636   15.3218   23.4686 C    0  0  0  0  0  0  0  0  0  0  0  0
   10.0164   15.3104   24.0493 C    0  0  0  0  0  0  0  0  0  0  0  0
    9.0412   15.2811   21.7727 C    0  0  0  0  0  0  0  0  0  0  0  0
    8.9945   14.6747   23.1408 N    0  0  0  0  0  0  0  0  0  0  0  0
    8.1401   13.6548   23.4889 C    0  0  0  0  0  0  0  0  0  0  0  0
    7.3591   13.1755   22.6854 O    0  0  0  0  0  0  0  0  0  0  0  0
    8.2412   13.1693   24.7575 O    0  0  0  0  0  0  0  0  0  0  0  0
    7.5911   12.0307   25.2170 C    0  0  0  0  0  0  0  0  0  0  0  0
    8.0441   10.7267   24.9025 C    0  0  0  0  0  0  0  0  0  0  0  0
    9.5032   10.5007   23.8836 S    0  0  0  0  0  0  0  0  0  0  0  0
    9.5208    8.7598   23.3208 C    0  0  0  0  0  0  0  0  0  0  0  0
    6.4837   12.2133   26.0623 C    0  0  0  0  0  0  0  0  0  0  0  0
    5.7982   11.1034   26.5778 C    0  0  0  0  0  0  0  0  0  0  0  0
    6.2264    9.8091   26.2611 C    0  0  0  0  0  0  0  0  0  0  0  0
    7.3417    9.6236   25.4366 C    0  0  0  0  0  0  0  0  0  0  0  0
   10.8605   15.0007   17.7832 H    0  0  0  0  0  0  0  0  0  0  0  0
   11.0350   13.7872   19.0271 H    0  0  0  0  0  0  0  0  0  0  0  0
   10.6881   14.0656   21.1170 H    0  0  0  0  0  0  0  0  0  0  0  0
   12.5108   15.6655   21.5973 H    0  0  0  0  0  0  0  0  0  0  0  0
   11.3586   16.9319   22.0026 H    0  0  0  0  0  0  0  0  0  0  0  0
   11.8716   14.3075   23.5009 H    0  0  0  0  0  0  0  0  0  0  0  0
   12.1084   15.9399   24.0984 H    0  0  0  0  0  0  0  0  0  0  0  0
   10.0733   14.8251   25.0272 H    0  0  0  0  0  0  0  0  0  0  0  0
    9.6997   16.3383   24.2597 H    0  0  0  0  0  0  0  0  0  0  0  0
    8.3080   14.8447   21.0929 H    0  0  0  0  0  0  0  0  0  0  0  0
    8.7587   16.3363   21.8443 H    0  0  0  0  0  0  0  0  0  0  0  0
   10.3474    8.6214   22.6223 H    0  0  0  0  0  0  0  0  0  0  0  0
    8.5895    8.5148   22.8031 H    0  0  0  0  0  0  0  0  0  0  0  0
    9.6684    8.0834   24.1629 H    0  0  0  0  0  0  0  0  0  0  0  0
    6.1506   13.2169   26.3178 H    0  0  0  0  0  0  0  0  0  0  0  0
    4.9307   11.2468   27.2162 H    0  0  0  0  0  0  0  0  0  0  0  0
    5.7016    8.9424   26.6652 H    0  0  0  0  0  0  0  0  0  0  0  0
    7.6469    8.6040   25.2361 H    0  0  0  0  0  0  0  0  0  0  0  0
  9 10  1  0  0  0  0
  7  9  1  0  0  0  0
  6  7  1  0  0  0  0
  5  6  1  0  0  0  0
  4  5  1  0  0  0  0
  2  4  1  0  0  0  0
  1  2  2  0  0  0  0
  3  2  1  0  0  0  0
 21  3  1  0  0  0  0
 22  3  1  0  0  0  0
 23  4  1  0  0  0  0
 24  5  1  0  0  0  0
 25  5  1  0  0  0  0
 26  6  1  0  0  0  0
 27  6  1  0  0  0  0
 28  7  1  0  0  0  0
 29  7  1  0  0  0  0
  8  4  1  0  0  0  0
 30  8  1  0  0  0  0
 31  8  1  0  0  0  0
 11 10  2  0  0  0  0
 12 10  1  0  0  0  0
 13 12  1  0  0  0  0
 14 13  1  0  0  0  0
 20 14  2  0  0  0  0
 15 14  1  0  0  0  0
 16 15  1  0  0  0  0
 32 16  1  0  0  0  0
 33 16  1  0  0  0  0
 34 16  1  0  0  0  0
 17 13  2  0  0  0  0
 35 17  1  0  0  0  0
 18 17  1  0  0  0  0
 36 18  1  0  0  0  0
 19 18  2  0  0  0  0
 37 19  1  0  0  0  0
 38 20  1  0  0  0  0
  9  8  1  0  0  0  0
 20 19  1  0  0  0  0
M  END
>  <FittedScore>
-33.88

$$$$
