A71EV2A-x5081a_best-RMSD
  FITTED

 34 35     0  0  0  0  0  0  0999 V2000
    9.3574   10.0036   23.8015 CL   0  0  0  0  0  0  0  0  0  0  0  0
    8.0106   10.3785   24.8355 C    0  0  0  0  0  0  0  0  0  0  0  0
    7.1972    9.3435   25.1867 N    0  0  0  0  0  0  0  0  0  0  0  0
    6.1749    9.6059   26.0546 C    0  0  0  0  0  0  0  0  0  0  0  0
    5.8981   10.8217   26.5988 N    0  0  0  0  0  0  0  0  0  0  0  0
    6.6889   11.8609   26.2266 C    0  0  0  0  0  0  0  0  0  0  0  0
    7.7695   11.6853   25.3329 C    0  0  0  0  0  0  0  0  0  0  0  0
    8.6129   12.8990   24.9495 C    0  0  0  0  0  0  0  0  0  0  0  0
    8.2869   13.5158   23.5797 C    0  0  0  0  0  0  0  0  0  0  0  0
    7.4287   13.0042   22.8765 O    0  0  0  0  0  0  0  0  0  0  0  0
    9.0133   14.6162   23.1675 N    0  0  0  0  0  0  0  0  0  0  0  0
    9.9554   15.4429   24.0156 C    0  0  0  0  0  0  0  0  0  0  0  0
   11.3775   15.5646   23.4091 C    0  0  0  0  0  0  0  0  0  0  0  0
   11.3166   16.1273   21.9639 C    0  0  0  0  0  0  0  0  0  0  0  0
    8.9336   15.1873   21.7782 C    0  0  0  0  0  0  0  0  0  0  0  0
   10.3468   15.2542   21.1139 C    0  0  0  0  0  0  0  0  0  0  0  0
   10.3120   15.7127   19.6538 C    0  0  0  0  0  0  0  0  0  0  0  0
    9.8461   16.7809   19.2937 O    0  0  0  0  0  0  0  0  0  0  0  0
   10.7111   14.7682   18.7729 N    0  0  0  0  0  0  0  0  0  0  0  0
    5.5190    8.7796   26.3271 H    0  0  0  0  0  0  0  0  0  0  0  0
    6.4732   12.8469   26.6346 H    0  0  0  0  0  0  0  0  0  0  0  0
    8.4637   13.6579   25.7202 H    0  0  0  0  0  0  0  0  0  0  0  0
    9.6701   12.6246   24.9968 H    0  0  0  0  0  0  0  0  0  0  0  0
    9.5306   16.4454   24.1357 H    0  0  0  0  0  0  0  0  0  0  0  0
   10.0748   15.0788   25.0324 H    0  0  0  0  0  0  0  0  0  0  0  0
   11.9924   16.2097   24.0403 H    0  0  0  0  0  0  0  0  0  0  0  0
   11.8587   14.5822   23.4054 H    0  0  0  0  0  0  0  0  0  0  0  0
   10.9751   17.1656   21.9899 H    0  0  0  0  0  0  0  0  0  0  0  0
   12.3200   16.1389   21.5239 H    0  0  0  0  0  0  0  0  0  0  0  0
    8.4941   16.1897   21.8225 H    0  0  0  0  0  0  0  0  0  0  0  0
    8.2756   14.6139   21.1179 H    0  0  0  0  0  0  0  0  0  0  0  0
   10.7437   14.2300   21.1509 H    0  0  0  0  0  0  0  0  0  0  0  0
   10.8957   13.8219   19.0989 H    0  0  0  0  0  0  0  0  0  0  0  0
   10.7377   14.9713   17.7704 H    0  0  0  0  0  0  0  0  0  0  0  0
  9 11  1  0  0  0  0
  8  9  1  0  0  0  0
  7  8  1  0  0  0  0
  6  7  2  0  0  0  0
  5  6  1  0  0  0  0
  4  5  2  0  0  0  0
  3  4  1  0  0  0  0
  2  3  2  0  0  0  0
  1  2  1  0  0  0  0
 20  4  1  0  0  0  0
 21  6  1  0  0  0  0
 22  8  1  0  0  0  0
 23  8  1  0  0  0  0
 10  9  2  0  0  0  0
 12 11  1  0  0  0  0
 24 12  1  0  0  0  0
 25 12  1  0  0  0  0
 13 12  1  0  0  0  0
 26 13  1  0  0  0  0
 27 13  1  0  0  0  0
 14 13  1  0  0  0  0
 28 14  1  0  0  0  0
 29 14  1  0  0  0  0
 15 11  1  0  0  0  0
 30 15  1  0  0  0  0
 31 15  1  0  0  0  0
 16 14  1  0  0  0  0
 17 16  1  0  0  0  0
 32 16  1  0  0  0  0
 18 17  2  0  0  0  0
 19 17  1  0  0  0  0
 33 19  1  0  0  0  0
 34 19  1  0  0  0  0
  7  2  1  0  0  0  0
 16 15  1  0  0  0  0
M  END
>  <FittedScore>
-31.66

$$$$
