A71EV2A-x4313a_lowest-energy
  FITTED

 40 41     0  0  0  0  0  0  0999 V2000
   11.2977   15.6600   24.3063 O    0  0  0  0  0  0  0  0  0  0  0  0
   10.7983   15.5100   23.2059 C    0  0  0  0  0  0  0  0  0  0  0  0
   11.4498   15.8162   21.8782 C    0  0  0  0  0  0  0  0  0  0  0  0
   10.6099   14.9924   20.8758 C    0  0  0  0  0  0  0  0  0  0  0  0
   10.4833   15.5730   19.4737 C    0  0  0  0  0  0  0  0  0  0  0  0
    9.6115   16.3511   19.1389 O    0  0  0  0  0  0  0  0  0  0  0  0
   11.3764   15.1152   18.5776 N    0  0  0  0  0  0  0  0  0  0  0  0
    9.2559   14.7742   21.5807 C    0  0  0  0  0  0  0  0  0  0  0  0
    9.6060   14.9169   22.9886 N    0  0  0  0  0  0  0  0  0  0  0  0
    8.7719   14.2031   23.9764 C    0  0  0  0  0  0  0  0  0  0  0  0
    9.2051   12.7181   24.1926 C    0  0  0  0  0  0  0  0  0  0  0  0
   10.6615   12.6553   24.7314 C    0  0  0  0  0  0  0  0  0  0  0  0
    8.2082   11.8287   24.9699 C    0  0  0  0  0  0  0  0  0  0  0  0
    8.1738   10.4289   24.7433 C    0  0  0  0  0  0  0  0  0  0  0  0
    9.1476    9.8686   23.9160 O    0  0  0  0  0  0  0  0  0  0  0  0
    9.2027    8.5160   23.4314 C    0  0  0  0  0  0  0  0  0  0  0  0
    7.3158   12.3838   25.9168 C    0  0  0  0  0  0  0  0  0  0  0  0
    6.3743   11.5838   26.5737 C    0  0  0  0  0  0  0  0  0  0  0  0
    6.3056   10.2175   26.3002 C    0  0  0  0  0  0  0  0  0  0  0  0
    7.1932    9.6418   25.3836 C    0  0  0  0  0  0  0  0  0  0  0  0
   11.3897   16.8929   21.6811 H    0  0  0  0  0  0  0  0  0  0  0  0
   12.4971   15.4957   21.8648 H    0  0  0  0  0  0  0  0  0  0  0  0
   11.0777   14.0000   20.8044 H    0  0  0  0  0  0  0  0  0  0  0  0
   11.1941   15.2545   17.5940 H    0  0  0  0  0  0  0  0  0  0  0  0
   12.1279   14.4812   18.8344 H    0  0  0  0  0  0  0  0  0  0  0  0
    8.5055   15.5296   21.3271 H    0  0  0  0  0  0  0  0  0  0  0  0
    8.8483   13.7892   21.3408 H    0  0  0  0  0  0  0  0  0  0  0  0
    8.7992   14.7522   24.9223 H    0  0  0  0  0  0  0  0  0  0  0  0
    7.7285   14.2408   23.6481 H    0  0  0  0  0  0  0  0  0  0  0  0
    9.2482   12.2967   23.1845 H    0  0  0  0  0  0  0  0  0  0  0  0
   10.7864   13.2962   25.6083 H    0  0  0  0  0  0  0  0  0  0  0  0
   11.3899   12.9335   23.9676 H    0  0  0  0  0  0  0  0  0  0  0  0
   10.9308   11.6482   25.0568 H    0  0  0  0  0  0  0  0  0  0  0  0
   10.0187    8.4411   22.7093 H    0  0  0  0  0  0  0  0  0  0  0  0
    8.2696    8.2502   22.9306 H    0  0  0  0  0  0  0  0  0  0  0  0
    9.3999    7.8285   24.2596 H    0  0  0  0  0  0  0  0  0  0  0  0
    7.3423   13.4396   26.1659 H    0  0  0  0  0  0  0  0  0  0  0  0
    5.6975   12.0280   27.2977 H    0  0  0  0  0  0  0  0  0  0  0  0
    5.5711    9.5947   26.8051 H    0  0  0  0  0  0  0  0  0  0  0  0
    7.1200    8.5715   25.2060 H    0  0  0  0  0  0  0  0  0  0  0  0
 11 12  1  0  0  0  0
 10 11  1  0  0  0  0
  9 10  1  0  0  0  0
  8  9  1  0  0  0  0
  4  8  1  0  0  0  0
  5  4  1  0  0  0  0
  3  4  1  0  0  0  0
  2  3  1  0  0  0  0
  1  2  2  0  0  0  0
 21  3  1  0  0  0  0
 22  3  1  0  0  0  0
 23  4  1  0  0  0  0
  6  5  2  0  0  0  0
  7  5  1  0  0  0  0
 24  7  1  0  0  0  0
 25  7  1  0  0  0  0
 26  8  1  0  0  0  0
 27  8  1  0  0  0  0
 28 10  1  0  0  0  0
 29 10  1  0  0  0  0
 30 11  1  0  0  0  0
 31 12  1  0  0  0  0
 32 12  1  0  0  0  0
 33 12  1  0  0  0  0
 13 11  1  0  0  0  0
 14 13  1  0  0  0  0
 20 14  2  0  0  0  0
 15 14  1  0  0  0  0
 16 15  1  0  0  0  0
 34 16  1  0  0  0  0
 35 16  1  0  0  0  0
 36 16  1  0  0  0  0
 17 13  2  0  0  0  0
 37 17  1  0  0  0  0
 18 17  1  0  0  0  0
 38 18  1  0  0  0  0
 19 18  2  0  0  0  0
 39 19  1  0  0  0  0
 40 20  1  0  0  0  0
  9  2  1  0  0  0  0
 20 19  1  0  0  0  0
M  END
>  <FittedScore>
-28.36

$$$$
