A71EV2A-x4313a_best-RMSD
  FITTED

 40 41     0  0  0  0  0  0  0999 V2000
   11.3343   15.7123   24.3407 O    0  0  0  0  0  0  0  0  0  0  0  0
   10.8123   15.5749   23.2490 C    0  0  0  0  0  0  0  0  0  0  0  0
   11.4600   15.8548   21.9124 C    0  0  0  0  0  0  0  0  0  0  0  0
   10.6201   14.9983   20.9405 C    0  0  0  0  0  0  0  0  0  0  0  0
   10.5350   15.4963   19.5046 C    0  0  0  0  0  0  0  0  0  0  0  0
    9.8163   16.4069   19.1377 O    0  0  0  0  0  0  0  0  0  0  0  0
   11.0906   14.6700   18.6012 N    0  0  0  0  0  0  0  0  0  0  0  0
    9.2550   14.8475   21.6298 C    0  0  0  0  0  0  0  0  0  0  0  0
    9.6131   14.9826   23.0380 N    0  0  0  0  0  0  0  0  0  0  0  0
    8.8096   14.2248   24.0181 C    0  0  0  0  0  0  0  0  0  0  0  0
    9.2527   12.7325   24.1543 C    0  0  0  0  0  0  0  0  0  0  0  0
   10.6979   12.6218   24.7121 C    0  0  0  0  0  0  0  0  0  0  0  0
    8.2593   11.7930   24.8729 C    0  0  0  0  0  0  0  0  0  0  0  0
    8.2676   10.4043   24.5865 C    0  0  0  0  0  0  0  0  0  0  0  0
    9.2330    9.9191   23.7027 O    0  0  0  0  0  0  0  0  0  0  0  0
    9.4472    8.5458   23.3433 C    0  0  0  0  0  0  0  0  0  0  0  0
    7.3419   12.2823   25.8323 C    0  0  0  0  0  0  0  0  0  0  0  0
    6.4236   11.4290   26.4538 C    0  0  0  0  0  0  0  0  0  0  0  0
    6.4131   10.0690   26.1403 C    0  0  0  0  0  0  0  0  0  0  0  0
    7.3220    9.5598   25.2085 C    0  0  0  0  0  0  0  0  0  0  0  0
   11.4041   16.9240   21.6834 H    0  0  0  0  0  0  0  0  0  0  0  0
   12.5075   15.5393   21.9122 H    0  0  0  0  0  0  0  0  0  0  0  0
   11.0736   13.9976   20.9546 H    0  0  0  0  0  0  0  0  0  0  0  0
   11.4514   13.7631   18.8870 H    0  0  0  0  0  0  0  0  0  0  0  0
   11.0304   14.8959   17.6157 H    0  0  0  0  0  0  0  0  0  0  0  0
    8.5502   15.6427   21.3676 H    0  0  0  0  0  0  0  0  0  0  0  0
    8.7975   13.8859   21.3820 H    0  0  0  0  0  0  0  0  0  0  0  0
    8.8628   14.7337   24.9834 H    0  0  0  0  0  0  0  0  0  0  0  0
    7.7576   14.2711   23.7192 H    0  0  0  0  0  0  0  0  0  0  0  0
    9.3158   12.3702   23.1241 H    0  0  0  0  0  0  0  0  0  0  0  0
   11.4475   12.9144   23.9745 H    0  0  0  0  0  0  0  0  0  0  0  0
   10.9393   11.5952   24.9981 H    0  0  0  0  0  0  0  0  0  0  0  0
   10.8209   13.2220   25.6183 H    0  0  0  0  0  0  0  0  0  0  0  0
    9.7220    7.9581   24.2212 H    0  0  0  0  0  0  0  0  0  0  0  0
   10.2658    8.5009   22.6196 H    0  0  0  0  0  0  0  0  0  0  0  0
    8.5531    8.1307   22.8722 H    0  0  0  0  0  0  0  0  0  0  0  0
    7.3288   13.3319   26.1140 H    0  0  0  0  0  0  0  0  0  0  0  0
    5.7208   11.8234   27.1832 H    0  0  0  0  0  0  0  0  0  0  0  0
    5.7020    9.4033   26.6207 H    0  0  0  0  0  0  0  0  0  0  0  0
    7.2825    8.4951   24.9919 H    0  0  0  0  0  0  0  0  0  0  0  0
 11 12  1  0  0  0  0
 10 11  1  0  0  0  0
  9 10  1  0  0  0  0
  8  9  1  0  0  0  0
  4  8  1  0  0  0  0
  5  4  1  0  0  0  0
  3  4  1  0  0  0  0
  2  3  1  0  0  0  0
  1  2  2  0  0  0  0
 21  3  1  0  0  0  0
 22  3  1  0  0  0  0
 23  4  1  0  0  0  0
  6  5  2  0  0  0  0
  7  5  1  0  0  0  0
 24  7  1  0  0  0  0
 25  7  1  0  0  0  0
 26  8  1  0  0  0  0
 27  8  1  0  0  0  0
 28 10  1  0  0  0  0
 29 10  1  0  0  0  0
 30 11  1  0  0  0  0
 31 12  1  0  0  0  0
 32 12  1  0  0  0  0
 33 12  1  0  0  0  0
 13 11  1  0  0  0  0
 14 13  1  0  0  0  0
 20 14  2  0  0  0  0
 15 14  1  0  0  0  0
 16 15  1  0  0  0  0
 34 16  1  0  0  0  0
 35 16  1  0  0  0  0
 36 16  1  0  0  0  0
 17 13  2  0  0  0  0
 37 17  1  0  0  0  0
 18 17  1  0  0  0  0
 38 18  1  0  0  0  0
 19 18  2  0  0  0  0
 39 19  1  0  0  0  0
 40 20  1  0  0  0  0
  9  2  1  0  0  0  0
 20 19  1  0  0  0  0
M  END
>  <FittedScore>
-28.67

$$$$
