A71EV2A-x4855a_lowest-energy
  FITTED

 36 37     0  0  0  0  0  0  0999 V2000
    9.7410   16.6536   19.5358 O    0  0  0  0  0  0  0  0  0  0  0  0
   10.3675   15.6398   19.7769 C    0  0  0  0  0  0  0  0  0  0  0  0
   10.8106   14.8556   18.7751 N    0  0  0  0  0  0  0  0  0  0  0  0
   10.5805   15.0780   21.1825 C    0  0  0  0  0  0  0  0  0  0  0  0
   11.3407   16.0028   22.1396 C    0  0  0  0  0  0  0  0  0  0  0  0
   10.9359   15.4628   23.5184 C    0  0  0  0  0  0  0  0  0  0  0  0
    9.2934   14.7101   21.9482 C    0  0  0  0  0  0  0  0  0  0  0  0
    9.6457   14.7433   23.3858 N    0  0  0  0  0  0  0  0  0  0  0  0
    9.0310   14.0807   24.4153 C    0  0  0  0  0  0  0  0  0  0  0  0
    9.5670   13.9236   25.4959 O    0  0  0  0  0  0  0  0  0  0  0  0
    7.8323   13.5001   24.1318 N    0  0  0  0  0  0  0  0  0  0  0  0
    7.2095   12.4460   24.8754 C    0  0  0  0  0  0  0  0  0  0  0  0
    7.6577   11.1057   24.7822 C    0  0  0  0  0  0  0  0  0  0  0  0
    9.0776   10.7063   23.7571 S    0  0  0  0  0  0  0  0  0  0  0  0
    9.0967    8.9067   23.4873 C    0  0  0  0  0  0  0  0  0  0  0  0
    6.1387   12.7822   25.7189 C    0  0  0  0  0  0  0  0  0  0  0  0
    5.5024   11.7916   26.4768 C    0  0  0  0  0  0  0  0  0  0  0  0
    5.9203   10.4584   26.3777 C    0  0  0  0  0  0  0  0  0  0  0  0
    6.9817   10.1178   25.5282 C    0  0  0  0  0  0  0  0  0  0  0  0
   10.7742   15.1855   17.8153 H    0  0  0  0  0  0  0  0  0  0  0  0
   11.1007   13.8982   18.9791 H    0  0  0  0  0  0  0  0  0  0  0  0
   11.1751   14.1574   21.1076 H    0  0  0  0  0  0  0  0  0  0  0  0
   12.4207   15.9468   21.9811 H    0  0  0  0  0  0  0  0  0  0  0  0
   11.0248   17.0454   22.0308 H    0  0  0  0  0  0  0  0  0  0  0  0
   11.7055   14.7831   23.8952 H    0  0  0  0  0  0  0  0  0  0  0  0
   10.8328   16.2866   24.2299 H    0  0  0  0  0  0  0  0  0  0  0  0
    8.9527   13.7186   21.6330 H    0  0  0  0  0  0  0  0  0  0  0  0
    8.4869   15.4249   21.7566 H    0  0  0  0  0  0  0  0  0  0  0  0
    7.3813   13.6944   23.2432 H    0  0  0  0  0  0  0  0  0  0  0  0
    8.1595    8.5909   23.0265 H    0  0  0  0  0  0  0  0  0  0  0  0
    9.2427    8.3837   24.4337 H    0  0  0  0  0  0  0  0  0  0  0  0
    9.9227    8.6487   22.8240 H    0  0  0  0  0  0  0  0  0  0  0  0
    5.8082   13.8154   25.7980 H    0  0  0  0  0  0  0  0  0  0  0  0
    4.6802   12.0584   27.1355 H    0  0  0  0  0  0  0  0  0  0  0  0
    5.4209    9.6870   26.9598 H    0  0  0  0  0  0  0  0  0  0  0  0
    7.2764    9.0757   25.4920 H    0  0  0  0  0  0  0  0  0  0  0  0
  9 11  1  0  0  0  0
  8  9  1  0  0  0  0
  6  8  1  0  0  0  0
  5  6  1  0  0  0  0
  4  5  1  0  0  0  0
  2  4  1  0  0  0  0
  1  2  2  0  0  0  0
  3  2  1  0  0  0  0
 20  3  1  0  0  0  0
 21  3  1  0  0  0  0
 22  4  1  0  0  0  0
 23  5  1  0  0  0  0
 24  5  1  0  0  0  0
 25  6  1  0  0  0  0
 26  6  1  0  0  0  0
  7  4  1  0  0  0  0
 27  7  1  0  0  0  0
 28  7  1  0  0  0  0
 10  9  2  0  0  0  0
 29 11  1  0  0  0  0
 12 11  1  0  0  0  0
 13 12  1  0  0  0  0
 19 13  2  0  0  0  0
 14 13  1  0  0  0  0
 15 14  1  0  0  0  0
 30 15  1  0  0  0  0
 31 15  1  0  0  0  0
 32 15  1  0  0  0  0
 16 12  2  0  0  0  0
 33 16  1  0  0  0  0
 17 16  1  0  0  0  0
 34 17  1  0  0  0  0
 18 17  2  0  0  0  0
 35 18  1  0  0  0  0
 36 19  1  0  0  0  0
  8  7  1  0  0  0  0
 19 18  1  0  0  0  0
M  END
>  <FittedScore>
-35.76

$$$$
