A71EV2A-x4855a_best-RMSD
  FITTED

 36 37     0  0  0  0  0  0  0999 V2000
    9.7369   16.5942   19.5593 O    0  0  0  0  0  0  0  0  0  0  0  0
   10.3753   15.5852   19.7944 C    0  0  0  0  0  0  0  0  0  0  0  0
   10.8095   14.8103   18.7847 N    0  0  0  0  0  0  0  0  0  0  0  0
   10.5978   15.0219   21.1984 C    0  0  0  0  0  0  0  0  0  0  0  0
   11.3696   15.9528   22.1392 C    0  0  0  0  0  0  0  0  0  0  0  0
   10.9336   15.4703   23.5299 C    0  0  0  0  0  0  0  0  0  0  0  0
    9.3078   14.6708   21.9654 C    0  0  0  0  0  0  0  0  0  0  0  0
    9.6458   14.7485   23.4069 N    0  0  0  0  0  0  0  0  0  0  0  0
    9.0253   14.1061   24.4454 C    0  0  0  0  0  0  0  0  0  0  0  0
    9.5793   13.9152   25.5152 O    0  0  0  0  0  0  0  0  0  0  0  0
    7.8103   13.5545   24.1823 N    0  0  0  0  0  0  0  0  0  0  0  0
    7.2160   12.4631   24.9006 C    0  0  0  0  0  0  0  0  0  0  0  0
    7.6763   11.1319   24.7356 C    0  0  0  0  0  0  0  0  0  0  0  0
    9.0567   10.7978   23.6344 S    0  0  0  0  0  0  0  0  0  0  0  0
    9.2327    8.9915   23.4733 C    0  0  0  0  0  0  0  0  0  0  0  0
    6.1613   12.7426   25.7860 C    0  0  0  0  0  0  0  0  0  0  0  0
    5.5536   11.7072   26.5106 C    0  0  0  0  0  0  0  0  0  0  0  0
    5.9881   10.3871   26.3421 C    0  0  0  0  0  0  0  0  0  0  0  0
    7.0343   10.1010   25.4576 C    0  0  0  0  0  0  0  0  0  0  0  0
   10.7850   15.1456   17.8267 H    0  0  0  0  0  0  0  0  0  0  0  0
   11.0808   13.8450   18.9762 H    0  0  0  0  0  0  0  0  0  0  0  0
   11.1835   14.0948   21.1401 H    0  0  0  0  0  0  0  0  0  0  0  0
   12.4497   15.8629   21.9995 H    0  0  0  0  0  0  0  0  0  0  0  0
   11.0855   17.0000   21.9917 H    0  0  0  0  0  0  0  0  0  0  0  0
   11.7008   14.8117   23.9514 H    0  0  0  0  0  0  0  0  0  0  0  0
   10.8167   16.3262   24.2017 H    0  0  0  0  0  0  0  0  0  0  0  0
    8.9659   13.6686   21.6834 H    0  0  0  0  0  0  0  0  0  0  0  0
    8.5009   15.3791   21.7495 H    0  0  0  0  0  0  0  0  0  0  0  0
    7.3474   13.7747   23.3027 H    0  0  0  0  0  0  0  0  0  0  0  0
    9.4693    8.5543   24.4438 H    0  0  0  0  0  0  0  0  0  0  0  0
    8.3077    8.5635   23.0805 H    0  0  0  0  0  0  0  0  0  0  0  0
   10.0482    8.7703   22.7840 H    0  0  0  0  0  0  0  0  0  0  0  0
    5.8135   13.7648   25.9218 H    0  0  0  0  0  0  0  0  0  0  0  0
    4.7406   11.9311   27.1973 H    0  0  0  0  0  0  0  0  0  0  0  0
    5.5090    9.5820   26.8952 H    0  0  0  0  0  0  0  0  0  0  0  0
    7.3383    9.0657   25.3655 H    0  0  0  0  0  0  0  0  0  0  0  0
  9 11  1  0  0  0  0
  8  9  1  0  0  0  0
  6  8  1  0  0  0  0
  5  6  1  0  0  0  0
  4  5  1  0  0  0  0
  2  4  1  0  0  0  0
  1  2  2  0  0  0  0
  3  2  1  0  0  0  0
 20  3  1  0  0  0  0
 21  3  1  0  0  0  0
 22  4  1  0  0  0  0
 23  5  1  0  0  0  0
 24  5  1  0  0  0  0
 25  6  1  0  0  0  0
 26  6  1  0  0  0  0
  7  4  1  0  0  0  0
 27  7  1  0  0  0  0
 28  7  1  0  0  0  0
 10  9  2  0  0  0  0
 29 11  1  0  0  0  0
 12 11  1  0  0  0  0
 13 12  1  0  0  0  0
 19 13  2  0  0  0  0
 14 13  1  0  0  0  0
 15 14  1  0  0  0  0
 30 15  1  0  0  0  0
 31 15  1  0  0  0  0
 32 15  1  0  0  0  0
 16 12  2  0  0  0  0
 33 16  1  0  0  0  0
 17 16  1  0  0  0  0
 34 17  1  0  0  0  0
 18 17  2  0  0  0  0
 35 18  1  0  0  0  0
 36 19  1  0  0  0  0
  8  7  1  0  0  0  0
 19 18  1  0  0  0  0
M  END
>  <FittedScore>
-36.62

$$$$
