A71EV2A-x5402a_best-RMSD
  FITTED

 34 35     0  0  0  0  0  0  0999 V2000
    8.9421   11.0767   23.5773 F    0  0  0  0  0  0  0  0  0  0  0  0
    7.9397   11.0267   24.4786 C    0  0  0  0  0  0  0  0  0  0  0  0
    7.4079    9.7800   24.8376 C    0  0  0  0  0  0  0  0  0  0  0  0
    6.3879    9.7077   25.7989 C    0  0  0  0  0  0  0  0  0  0  0  0
    5.8849   10.8749   26.3915 C    0  0  0  0  0  0  0  0  0  0  0  0
    6.3878   12.1278   26.0071 C    0  0  0  0  0  0  0  0  0  0  0  0
    7.4032   12.2058   25.0394 C    0  0  0  0  0  0  0  0  0  0  0  0
    7.8457   13.4522   24.6289 O    0  0  0  0  0  0  0  0  0  0  0  0
    7.7430   13.8833   23.3358 C    0  0  0  0  0  0  0  0  0  0  0  0
    7.0476   13.2878   22.5216 O    0  0  0  0  0  0  0  0  0  0  0  0
    8.5599   14.9256   22.9762 N    0  0  0  0  0  0  0  0  0  0  0  0
    9.5362   15.6216   23.8853 C    0  0  0  0  0  0  0  0  0  0  0  0
   11.0104   15.4638   23.4180 C    0  0  0  0  0  0  0  0  0  0  0  0
   11.1934   15.9054   21.9383 C    0  0  0  0  0  0  0  0  0  0  0  0
    8.6901   15.4196   21.5726 C    0  0  0  0  0  0  0  0  0  0  0  0
   10.1330   15.2540   21.0017 C    0  0  0  0  0  0  0  0  0  0  0  0
   10.2535   15.7754   19.5657 C    0  0  0  0  0  0  0  0  0  0  0  0
    9.6728   16.7570   19.1491 O    0  0  0  0  0  0  0  0  0  0  0  0
   10.8988   14.9748   18.6988 N    0  0  0  0  0  0  0  0  0  0  0  0
    7.7923    8.8701   24.3830 H    0  0  0  0  0  0  0  0  0  0  0  0
    5.9951    8.7365   26.0936 H    0  0  0  0  0  0  0  0  0  0  0  0
    5.0984   10.8097   27.1369 H    0  0  0  0  0  0  0  0  0  0  0  0
    5.9829   13.0331   26.4513 H    0  0  0  0  0  0  0  0  0  0  0  0
    9.2844   16.6854   23.9343 H    0  0  0  0  0  0  0  0  0  0  0  0
    9.4780   15.2816   24.9203 H    0  0  0  0  0  0  0  0  0  0  0  0
   11.6666   16.0567   24.0613 H    0  0  0  0  0  0  0  0  0  0  0  0
   11.3208   14.4210   23.5360 H    0  0  0  0  0  0  0  0  0  0  0  0
   11.1122   16.9908   21.8804 H    0  0  0  0  0  0  0  0  0  0  0  0
   12.2007   15.6420   21.6005 H    0  0  0  0  0  0  0  0  0  0  0  0
    8.3876   16.4711   21.5495 H    0  0  0  0  0  0  0  0  0  0  0  0
    8.0003   14.9217   20.8872 H    0  0  0  0  0  0  0  0  0  0  0  0
   10.3323   14.1745   20.9981 H    0  0  0  0  0  0  0  0  0  0  0  0
   11.1668   14.0386   18.9942 H    0  0  0  0  0  0  0  0  0  0  0  0
   10.8909   15.1924   17.7081 H    0  0  0  0  0  0  0  0  0  0  0  0
  8  9  1  0  0  0  0
  7  8  1  0  0  0  0
  6  7  2  0  0  0  0
  5  6  1  0  0  0  0
  4  5  2  0  0  0  0
  3  4  1  0  0  0  0
  2  3  2  0  0  0  0
  1  2  1  0  0  0  0
 20  3  1  0  0  0  0
 21  4  1  0  0  0  0
 22  5  1  0  0  0  0
 23  6  1  0  0  0  0
 10  9  2  0  0  0  0
 11  9  1  0  0  0  0
 12 11  1  0  0  0  0
 24 12  1  0  0  0  0
 25 12  1  0  0  0  0
 13 12  1  0  0  0  0
 26 13  1  0  0  0  0
 27 13  1  0  0  0  0
 14 13  1  0  0  0  0
 28 14  1  0  0  0  0
 29 14  1  0  0  0  0
 15 11  1  0  0  0  0
 30 15  1  0  0  0  0
 31 15  1  0  0  0  0
 16 14  1  0  0  0  0
 17 16  1  0  0  0  0
 32 16  1  0  0  0  0
 18 17  2  0  0  0  0
 19 17  1  0  0  0  0
 33 19  1  0  0  0  0
 34 19  1  0  0  0  0
  7  2  1  0  0  0  0
 16 15  1  0  0  0  0
M  END
>  <FittedScore>
-36.19

$$$$
