A71EV2A-x5402a_lowest-energy
  FITTED

 34 35     0  0  0  0  0  0  0999 V2000
    8.8087   10.9390   23.9693 F    0  0  0  0  0  0  0  0  0  0  0  0
    7.7292   11.0312   24.7731 C    0  0  0  0  0  0  0  0  0  0  0  0
    7.0953    9.8569   25.1979 C    0  0  0  0  0  0  0  0  0  0  0  0
    5.9992    9.9266   26.0750 C    0  0  0  0  0  0  0  0  0  0  0  0
    5.5363   11.1684   26.5295 C    0  0  0  0  0  0  0  0  0  0  0  0
    6.1443   12.3493   26.0812 C    0  0  0  0  0  0  0  0  0  0  0  0
    7.2300   12.2822   25.1908 C    0  0  0  0  0  0  0  0  0  0  0  0
    7.7708   13.4620   24.7207 O    0  0  0  0  0  0  0  0  0  0  0  0
    7.7420   13.8157   23.4031 C    0  0  0  0  0  0  0  0  0  0  0  0
    7.0644   13.2034   22.5861 O    0  0  0  0  0  0  0  0  0  0  0  0
    8.6069   14.8162   23.0332 N    0  0  0  0  0  0  0  0  0  0  0  0
    9.5659   15.5288   23.9458 C    0  0  0  0  0  0  0  0  0  0  0  0
   11.0430   15.4636   23.4530 C    0  0  0  0  0  0  0  0  0  0  0  0
   11.1793   15.9419   21.9837 C    0  0  0  0  0  0  0  0  0  0  0  0
    8.7037   15.3401   21.6344 C    0  0  0  0  0  0  0  0  0  0  0  0
   10.1478   15.2344   21.0606 C    0  0  0  0  0  0  0  0  0  0  0  0
   10.2507   15.7689   19.6306 C    0  0  0  0  0  0  0  0  0  0  0  0
    9.7853   16.8250   19.2555 O    0  0  0  0  0  0  0  0  0  0  0  0
   10.8494   14.9517   18.7470 N    0  0  0  0  0  0  0  0  0  0  0  0
    7.4730    8.8933   24.8700 H    0  0  0  0  0  0  0  0  0  0  0  0
    5.5140    9.0103   26.4051 H    0  0  0  0  0  0  0  0  0  0  0  0
    4.6969   11.2209   27.2195 H    0  0  0  0  0  0  0  0  0  0  0  0
    5.7779   13.3153   26.4206 H    0  0  0  0  0  0  0  0  0  0  0  0
    9.2626   16.5771   24.0321 H    0  0  0  0  0  0  0  0  0  0  0  0
    9.5526   15.1458   24.9692 H    0  0  0  0  0  0  0  0  0  0  0  0
   11.6745   16.0870   24.0905 H    0  0  0  0  0  0  0  0  0  0  0  0
   11.4174   14.4403   23.5447 H    0  0  0  0  0  0  0  0  0  0  0  0
   11.0394   17.0256   21.9356 H    0  0  0  0  0  0  0  0  0  0  0  0
   12.1930   15.7282   21.6314 H    0  0  0  0  0  0  0  0  0  0  0  0
    8.3686   16.3809   21.6332 H    0  0  0  0  0  0  0  0  0  0  0  0
    8.0340   14.8164   20.9478 H    0  0  0  0  0  0  0  0  0  0  0  0
   10.3929   14.1636   21.0673 H    0  0  0  0  0  0  0  0  0  0  0  0
   11.1194   14.0157   19.0478 H    0  0  0  0  0  0  0  0  0  0  0  0
   10.8456   15.1765   17.7585 H    0  0  0  0  0  0  0  0  0  0  0  0
  8  9  1  0  0  0  0
  7  8  1  0  0  0  0
  6  7  2  0  0  0  0
  5  6  1  0  0  0  0
  4  5  2  0  0  0  0
  3  4  1  0  0  0  0
  2  3  2  0  0  0  0
  1  2  1  0  0  0  0
 20  3  1  0  0  0  0
 21  4  1  0  0  0  0
 22  5  1  0  0  0  0
 23  6  1  0  0  0  0
 10  9  2  0  0  0  0
 11  9  1  0  0  0  0
 12 11  1  0  0  0  0
 24 12  1  0  0  0  0
 25 12  1  0  0  0  0
 13 12  1  0  0  0  0
 26 13  1  0  0  0  0
 27 13  1  0  0  0  0
 14 13  1  0  0  0  0
 28 14  1  0  0  0  0
 29 14  1  0  0  0  0
 15 11  1  0  0  0  0
 30 15  1  0  0  0  0
 31 15  1  0  0  0  0
 16 14  1  0  0  0  0
 17 16  1  0  0  0  0
 32 16  1  0  0  0  0
 18 17  2  0  0  0  0
 19 17  1  0  0  0  0
 33 19  1  0  0  0  0
 34 19  1  0  0  0  0
  7  2  1  0  0  0  0
 16 15  1  0  0  0  0
M  END
>  <FittedScore>
-35.88

$$$$
