A71EV2A-x5065a_best-RMSD
  FITTED

 37 38     0  0  0  0  0  0  0999 V2000
   11.6035   16.1220   24.4180 O    0  0  0  0  0  0  0  0  0  0  0  0
   11.1593   15.6685   23.3853 C    0  0  0  0  0  0  0  0  0  0  0  0
   11.6486   16.0195   21.9989 C    0  0  0  0  0  0  0  0  0  0  0  0
   11.0481   14.9179   21.1040 C    0  0  0  0  0  0  0  0  0  0  0  0
   10.6434   15.3558   19.6922 C    0  0  0  0  0  0  0  0  0  0  0  0
    9.7448   16.1381   19.4450 O    0  0  0  0  0  0  0  0  0  0  0  0
   11.3269   14.8015   18.6745 N    0  0  0  0  0  0  0  0  0  0  0  0
    9.8777   14.3532   21.9370 C    0  0  0  0  0  0  0  0  0  0  0  0
   10.1649   14.7620   23.3114 N    0  0  0  0  0  0  0  0  0  0  0  0
    9.5365   14.0281   24.4480 C    0  0  0  0  0  0  0  0  0  0  0  0
    8.0259   13.6654   24.2908 C    0  0  0  0  0  0  0  0  0  0  0  0
    7.4586   12.5419   25.1775 C    0  0  0  0  0  0  0  0  0  0  0  0
    7.7548   11.1668   24.9528 C    0  0  0  0  0  0  0  0  0  0  0  0
    9.0314   10.6974   23.7781 S    0  0  0  0  0  0  0  0  0  0  0  0
    9.0106    8.8984   23.5172 C    0  0  0  0  0  0  0  0  0  0  0  0
    6.5134   12.8872   26.1682 C    0  0  0  0  0  0  0  0  0  0  0  0
    5.8437   11.8993   26.9005 C    0  0  0  0  0  0  0  0  0  0  0  0
    6.0980   10.5485   26.6454 C    0  0  0  0  0  0  0  0  0  0  0  0
    7.0458   10.1862   25.6809 C    0  0  0  0  0  0  0  0  0  0  0  0
   11.3006   17.0202   21.7182 H    0  0  0  0  0  0  0  0  0  0  0  0
   12.7422   16.0078   21.9547 H    0  0  0  0  0  0  0  0  0  0  0  0
   11.7977   14.1175   21.0393 H    0  0  0  0  0  0  0  0  0  0  0  0
   12.1066   14.1696   18.8394 H    0  0  0  0  0  0  0  0  0  0  0  0
   11.0585   15.0147   17.7216 H    0  0  0  0  0  0  0  0  0  0  0  0
    8.9148   14.7636   21.6224 H    0  0  0  0  0  0  0  0  0  0  0  0
    9.8377   13.2643   21.8405 H    0  0  0  0  0  0  0  0  0  0  0  0
   10.1475   13.1482   24.6379 H    0  0  0  0  0  0  0  0  0  0  0  0
    9.6228   14.6249   25.3598 H    0  0  0  0  0  0  0  0  0  0  0  0
    7.4603   14.5904   24.4369 H    0  0  0  0  0  0  0  0  0  0  0  0
    7.7817   13.3774   23.2675 H    0  0  0  0  0  0  0  0  0  0  0  0
    9.7578    8.6390   22.7656 H    0  0  0  0  0  0  0  0  0  0  0  0
    8.0266    8.5880   23.1618 H    0  0  0  0  0  0  0  0  0  0  0  0
    9.2557    8.3791   24.4479 H    0  0  0  0  0  0  0  0  0  0  0  0
    6.2752   13.9302   26.3670 H    0  0  0  0  0  0  0  0  0  0  0  0
    5.1175   12.1793   27.6613 H    0  0  0  0  0  0  0  0  0  0  0  0
    5.5641    9.7792   27.2009 H    0  0  0  0  0  0  0  0  0  0  0  0
    7.2242    9.1278   25.5308 H    0  0  0  0  0  0  0  0  0  0  0  0
 10 11  1  0  0  0  0
  9 10  1  0  0  0  0
  8  9  1  0  0  0  0
  4  8  1  0  0  0  0
  5  4  1  0  0  0  0
  3  4  1  0  0  0  0
  2  3  1  0  0  0  0
  1  2  2  0  0  0  0
 20  3  1  0  0  0  0
 21  3  1  0  0  0  0
 22  4  1  0  0  0  0
  6  5  2  0  0  0  0
  7  5  1  0  0  0  0
 23  7  1  0  0  0  0
 24  7  1  0  0  0  0
 25  8  1  0  0  0  0
 26  8  1  0  0  0  0
 27 10  1  0  0  0  0
 28 10  1  0  0  0  0
 29 11  1  0  0  0  0
 30 11  1  0  0  0  0
 12 11  1  0  0  0  0
 13 12  1  0  0  0  0
 19 13  2  0  0  0  0
 14 13  1  0  0  0  0
 15 14  1  0  0  0  0
 31 15  1  0  0  0  0
 32 15  1  0  0  0  0
 33 15  1  0  0  0  0
 16 12  2  0  0  0  0
 34 16  1  0  0  0  0
 17 16  1  0  0  0  0
 35 17  1  0  0  0  0
 18 17  2  0  0  0  0
 36 18  1  0  0  0  0
 37 19  1  0  0  0  0
  9  2  1  0  0  0  0
 19 18  1  0  0  0  0
M  END
>  <FittedScore>
-29.85

$$$$
