A71EV2A-x5065a_lowest-energy
  FITTED

 37 38     0  0  0  0  0  0  0999 V2000
   11.1371   15.6596   24.4459 O    0  0  0  0  0  0  0  0  0  0  0  0
   10.6307   15.3377   23.3919 C    0  0  0  0  0  0  0  0  0  0  0  0
   11.2125   15.6766   22.0458 C    0  0  0  0  0  0  0  0  0  0  0  0
   10.3779   14.8055   21.0963 C    0  0  0  0  0  0  0  0  0  0  0  0
   10.2944   15.3411   19.6697 C    0  0  0  0  0  0  0  0  0  0  0  0
    9.5950   16.2696   19.3206 O    0  0  0  0  0  0  0  0  0  0  0  0
   10.9344   14.6099   18.7413 N    0  0  0  0  0  0  0  0  0  0  0  0
    9.0428   14.5595   21.8398 C    0  0  0  0  0  0  0  0  0  0  0  0
    9.4203   14.7499   23.2389 N    0  0  0  0  0  0  0  0  0  0  0  0
    8.4010   14.4800   24.2866 C    0  0  0  0  0  0  0  0  0  0  0  0
    8.7993   13.3823   25.2979 C    0  0  0  0  0  0  0  0  0  0  0  0
    8.5729   11.9386   24.8346 C    0  0  0  0  0  0  0  0  0  0  0  0
    7.4602   11.1507   25.2362 C    0  0  0  0  0  0  0  0  0  0  0  0
    6.1325   11.8239   26.2336 S    0  0  0  0  0  0  0  0  0  0  0  0
    5.6475   10.5203   27.4190 C    0  0  0  0  0  0  0  0  0  0  0  0
    9.5471   11.3699   23.9914 C    0  0  0  0  0  0  0  0  0  0  0  0
    9.4427   10.0419   23.5653 C    0  0  0  0  0  0  0  0  0  0  0  0
    8.3607    9.2620   23.9798 C    0  0  0  0  0  0  0  0  0  0  0  0
    7.3751    9.8121   24.8052 C    0  0  0  0  0  0  0  0  0  0  0  0
   11.0718   16.7432   21.8403 H    0  0  0  0  0  0  0  0  0  0  0  0
   12.2776   15.4321   21.9925 H    0  0  0  0  0  0  0  0  0  0  0  0
   10.8751   13.8283   21.0664 H    0  0  0  0  0  0  0  0  0  0  0  0
   10.8523   14.8663   17.7679 H    0  0  0  0  0  0  0  0  0  0  0  0
   11.2563   13.6727   18.9762 H    0  0  0  0  0  0  0  0  0  0  0  0
    8.2746   15.2864   21.5629 H    0  0  0  0  0  0  0  0  0  0  0  0
    8.6604   13.5490   21.6659 H    0  0  0  0  0  0  0  0  0  0  0  0
    8.2251   15.4099   24.8321 H    0  0  0  0  0  0  0  0  0  0  0  0
    7.4358   14.2215   23.8412 H    0  0  0  0  0  0  0  0  0  0  0  0
    9.8513   13.4942   25.5721 H    0  0  0  0  0  0  0  0  0  0  0  0
    8.2920   13.5813   26.2435 H    0  0  0  0  0  0  0  0  0  0  0  0
    6.5368   10.1093   27.9033 H    0  0  0  0  0  0  0  0  0  0  0  0
    5.1069    9.7199   26.9103 H    0  0  0  0  0  0  0  0  0  0  0  0
    4.9972   10.9517   28.1820 H    0  0  0  0  0  0  0  0  0  0  0  0
   10.4037   11.9560   23.6647 H    0  0  0  0  0  0  0  0  0  0  0  0
   10.2054    9.6192   22.9153 H    0  0  0  0  0  0  0  0  0  0  0  0
    8.2791    8.2332   23.6457 H    0  0  0  0  0  0  0  0  0  0  0  0
    6.5298    9.1878   25.0782 H    0  0  0  0  0  0  0  0  0  0  0  0
 10 11  1  0  0  0  0
  9 10  1  0  0  0  0
  8  9  1  0  0  0  0
  4  8  1  0  0  0  0
  5  4  1  0  0  0  0
  3  4  1  0  0  0  0
  2  3  1  0  0  0  0
  1  2  2  0  0  0  0
 20  3  1  0  0  0  0
 21  3  1  0  0  0  0
 22  4  1  0  0  0  0
  6  5  2  0  0  0  0
  7  5  1  0  0  0  0
 23  7  1  0  0  0  0
 24  7  1  0  0  0  0
 25  8  1  0  0  0  0
 26  8  1  0  0  0  0
 27 10  1  0  0  0  0
 28 10  1  0  0  0  0
 29 11  1  0  0  0  0
 30 11  1  0  0  0  0
 12 11  1  0  0  0  0
 13 12  1  0  0  0  0
 19 13  2  0  0  0  0
 14 13  1  0  0  0  0
 15 14  1  0  0  0  0
 31 15  1  0  0  0  0
 32 15  1  0  0  0  0
 33 15  1  0  0  0  0
 16 12  2  0  0  0  0
 34 16  1  0  0  0  0
 17 16  1  0  0  0  0
 35 17  1  0  0  0  0
 18 17  2  0  0  0  0
 36 18  1  0  0  0  0
 37 19  1  0  0  0  0
  9  2  1  0  0  0  0
 19 18  1  0  0  0  0
M  END
>  <FittedScore>
-31.05

$$$$
