A71EV2A-x4310b_best-RMSD
  FITTED

 42 43     0  0  0  0  0  0  0999 V2000
    5.6220   11.7673   29.1967 F    0  0  0  0  0  0  0  0  0  0  0  0
    5.2154   11.0419   28.1443 C    0  0  0  0  0  0  0  0  0  0  0  0
    4.0736   11.5975   27.6978 F    0  0  0  0  0  0  0  0  0  0  0  0
    4.8796    9.8347   28.6412 F    0  0  0  0  0  0  0  0  0  0  0  0
    6.2738   11.0093   27.0206 C    0  0  0  0  0  0  0  0  0  0  0  0
    6.9223   12.1863   26.5449 C    0  0  0  0  0  0  0  0  0  0  0  0
    6.5841   13.4481   27.0288 O    0  0  0  0  0  0  0  0  0  0  0  0
    5.6211   14.2598   26.2966 C    0  0  0  0  0  0  0  0  0  0  0  0
    6.5784    9.7763   26.4005 C    0  0  0  0  0  0  0  0  0  0  0  0
    7.5475    9.6882   25.3974 C    0  0  0  0  0  0  0  0  0  0  0  0
    8.2110   10.8338   24.9663 C    0  0  0  0  0  0  0  0  0  0  0  0
    7.8848   12.0812   25.5177 C    0  0  0  0  0  0  0  0  0  0  0  0
    8.4852   13.2487   24.9440 N    0  0  0  0  0  0  0  0  0  0  0  0
    8.2985   13.6571   23.6537 C    0  0  0  0  0  0  0  0  0  0  0  0
    7.5230   13.0452   22.9323 O    0  0  0  0  0  0  0  0  0  0  0  0
    8.9385   14.8087   23.2456 N    0  0  0  0  0  0  0  0  0  0  0  0
    8.8924   15.2973   21.8272 C    0  0  0  0  0  0  0  0  0  0  0  0
   10.3063   15.3325   21.1672 C    0  0  0  0  0  0  0  0  0  0  0  0
   10.2436   15.7504   19.6957 C    0  0  0  0  0  0  0  0  0  0  0  0
    9.7851   16.8100   19.3070 O    0  0  0  0  0  0  0  0  0  0  0  0
   10.6005   14.7978   18.8061 N    0  0  0  0  0  0  0  0  0  0  0  0
   11.2654   16.2384   21.9966 C    0  0  0  0  0  0  0  0  0  0  0  0
   11.2758   15.8082   23.4915 C    0  0  0  0  0  0  0  0  0  0  0  0
    9.8372   15.6895   24.0744 C    0  0  0  0  0  0  0  0  0  0  0  0
    6.0311   14.6012   25.3445 H    0  0  0  0  0  0  0  0  0  0  0  0
    5.3615   15.1291   26.8987 H    0  0  0  0  0  0  0  0  0  0  0  0
    4.7111   13.6899   26.0866 H    0  0  0  0  0  0  0  0  0  0  0  0
    6.0757    8.8552   26.6967 H    0  0  0  0  0  0  0  0  0  0  0  0
    7.7821    8.7303   24.9415 H    0  0  0  0  0  0  0  0  0  0  0  0
    8.9606   10.7481   24.1777 H    0  0  0  0  0  0  0  0  0  0  0  0
    8.8355   13.9064   25.6425 H    0  0  0  0  0  0  0  0  0  0  0  0
    8.2422   14.6831   21.1987 H    0  0  0  0  0  0  0  0  0  0  0  0
    8.4391   16.2934   21.8090 H    0  0  0  0  0  0  0  0  0  0  0  0
   10.7059   14.3114   21.2207 H    0  0  0  0  0  0  0  0  0  0  0  0
   10.8205   13.8499   19.1155 H    0  0  0  0  0  0  0  0  0  0  0  0
   10.5165   14.9895   17.8152 H    0  0  0  0  0  0  0  0  0  0  0  0
   12.2766   16.1803   21.5884 H    0  0  0  0  0  0  0  0  0  0  0  0
   10.9500   17.2832   21.9224 H    0  0  0  0  0  0  0  0  0  0  0  0
   11.7837   14.8457   23.5971 H    0  0  0  0  0  0  0  0  0  0  0  0
   11.8424   16.5332   24.0787 H    0  0  0  0  0  0  0  0  0  0  0  0
    9.9250   15.3587   25.1135 H    0  0  0  0  0  0  0  0  0  0  0  0
    9.3917   16.6878   24.1399 H    0  0  0  0  0  0  0  0  0  0  0  0
 13 14  1  0  0  0  0
 12 13  1  0  0  0  0
  6 12  2  0  0  0  0
  5  6  1  0  0  0  0
  2  5  1  0  0  0  0
  1  2  1  0  0  0  0
  3  2  1  0  0  0  0
  4  2  1  0  0  0  0
  7  6  1  0  0  0  0
  8  7  1  0  0  0  0
 25  8  1  0  0  0  0
 26  8  1  0  0  0  0
 27  8  1  0  0  0  0
  9  5  2  0  0  0  0
 28  9  1  0  0  0  0
 10  9  1  0  0  0  0
 29 10  1  0  0  0  0
 11 10  2  0  0  0  0
 30 11  1  0  0  0  0
 31 13  1  0  0  0  0
 15 14  2  0  0  0  0
 16 14  1  0  0  0  0
 24 16  1  0  0  0  0
 17 16  1  0  0  0  0
 32 17  1  0  0  0  0
 33 17  1  0  0  0  0
 18 17  1  0  0  0  0
 19 18  1  0  0  0  0
 34 18  1  0  0  0  0
 20 19  2  0  0  0  0
 21 19  1  0  0  0  0
 35 21  1  0  0  0  0
 36 21  1  0  0  0  0
 22 18  1  0  0  0  0
 37 22  1  0  0  0  0
 38 22  1  0  0  0  0
 23 22  1  0  0  0  0
 39 23  1  0  0  0  0
 40 23  1  0  0  0  0
 41 24  1  0  0  0  0
 42 24  1  0  0  0  0
 12 11  1  0  0  0  0
 24 23  1  0  0  0  0
M  END
>  <FittedScore>
-36.32

$$$$
