A71EV2A-x4979a_best-RMSD
  FITTED

 34 35     0  0  0  0  0  0  0999 V2000
    9.2908   10.1830   24.0140 CL   0  0  0  0  0  0  0  0  0  0  0  0
    7.8905   10.5738   24.9666 C    0  0  0  0  0  0  0  0  0  0  0  0
    7.0204    9.5346   25.3311 C    0  0  0  0  0  0  0  0  0  0  0  0
    5.9395    9.7397   26.1359 N    0  0  0  0  0  0  0  0  0  0  0  0
    5.6956   11.0185   26.5386 C    0  0  0  0  0  0  0  0  0  0  0  0
    6.4654   12.0927   26.2004 N    0  0  0  0  0  0  0  0  0  0  0  0
    7.5681   11.8777   25.4196 C    0  0  0  0  0  0  0  0  0  0  0  0
    8.4090   13.1014   25.0559 C    0  0  0  0  0  0  0  0  0  0  0  0
    8.2106   13.6207   23.6217 C    0  0  0  0  0  0  0  0  0  0  0  0
    7.3877   13.0911   22.8873 O    0  0  0  0  0  0  0  0  0  0  0  0
    8.9871   14.6776   23.1829 N    0  0  0  0  0  0  0  0  0  0  0  0
    9.9477   15.5019   24.0054 C    0  0  0  0  0  0  0  0  0  0  0  0
   11.3725   15.6109   23.3896 C    0  0  0  0  0  0  0  0  0  0  0  0
   11.3380   16.1068   21.9199 C    0  0  0  0  0  0  0  0  0  0  0  0
    8.9116   15.2309   21.7871 C    0  0  0  0  0  0  0  0  0  0  0  0
   10.3105   15.2811   21.0924 C    0  0  0  0  0  0  0  0  0  0  0  0
   10.2445   15.7731   19.6461 C    0  0  0  0  0  0  0  0  0  0  0  0
    9.7740   16.8444   19.3039 O    0  0  0  0  0  0  0  0  0  0  0  0
   10.6126   14.8613   18.7270 N    0  0  0  0  0  0  0  0  0  0  0  0
    7.2248    8.5267   24.9811 H    0  0  0  0  0  0  0  0  0  0  0  0
    4.8255   11.1996   27.1631 H    0  0  0  0  0  0  0  0  0  0  0  0
    8.1823   13.9046   25.7634 H    0  0  0  0  0  0  0  0  0  0  0  0
    9.4617   12.8512   25.2133 H    0  0  0  0  0  0  0  0  0  0  0  0
    9.5303   16.5061   24.1258 H    0  0  0  0  0  0  0  0  0  0  0  0
   10.0790   15.1341   25.0207 H    0  0  0  0  0  0  0  0  0  0  0  0
   11.9797   16.2973   23.9862 H    0  0  0  0  0  0  0  0  0  0  0  0
   11.8657   14.6351   23.4365 H    0  0  0  0  0  0  0  0  0  0  0  0
   11.0845   17.1715   21.8917 H    0  0  0  0  0  0  0  0  0  0  0  0
   12.3343   16.0064   21.4769 H    0  0  0  0  0  0  0  0  0  0  0  0
    8.4752   16.2342   21.8238 H    0  0  0  0  0  0  0  0  0  0  0  0
    8.2415   14.6513   21.1451 H    0  0  0  0  0  0  0  0  0  0  0  0
   10.6732   14.2454   21.0976 H    0  0  0  0  0  0  0  0  0  0  0  0
   10.8450   13.9186   19.0108 H    0  0  0  0  0  0  0  0  0  0  0  0
   10.5919   15.0963   17.7366 H    0  0  0  0  0  0  0  0  0  0  0  0
  9 11  1  0  0  0  0
  8  9  1  0  0  0  0
  7  8  1  0  0  0  0
  6  7  2  0  0  0  0
  5  6  1  0  0  0  0
  4  5  2  0  0  0  0
  3  4  1  0  0  0  0
  2  3  2  0  0  0  0
  1  2  1  0  0  0  0
 20  3  1  0  0  0  0
 21  5  1  0  0  0  0
 22  8  1  0  0  0  0
 23  8  1  0  0  0  0
 10  9  2  0  0  0  0
 12 11  1  0  0  0  0
 24 12  1  0  0  0  0
 25 12  1  0  0  0  0
 13 12  1  0  0  0  0
 26 13  1  0  0  0  0
 27 13  1  0  0  0  0
 14 13  1  0  0  0  0
 28 14  1  0  0  0  0
 29 14  1  0  0  0  0
 15 11  1  0  0  0  0
 30 15  1  0  0  0  0
 31 15  1  0  0  0  0
 16 14  1  0  0  0  0
 17 16  1  0  0  0  0
 32 16  1  0  0  0  0
 18 17  2  0  0  0  0
 19 17  1  0  0  0  0
 33 19  1  0  0  0  0
 34 19  1  0  0  0  0
  7  2  1  0  0  0  0
 16 15  1  0  0  0  0
M  END
>  <FittedScore>
-28.54

$$$$
