A71EV2A-x4670a_best-RMSD
  FITTED

 40 41     0  0  0  0  0  0  0999 V2000
    9.6108   16.7370   19.2289 O    0  0  0  0  0  0  0  0  0  0  0  0
   10.2908   15.7794   19.5334 C    0  0  0  0  0  0  0  0  0  0  0  0
   11.0631   15.1869   18.6050 N    0  0  0  0  0  0  0  0  0  0  0  0
   10.4034   15.2528   20.9619 C    0  0  0  0  0  0  0  0  0  0  0  0
   11.4604   16.0719   21.7551 C    0  0  0  0  0  0  0  0  0  0  0  0
   11.5385   15.5787   23.2198 C    0  0  0  0  0  0  0  0  0  0  0  0
   10.1453   15.5413   23.8958 C    0  0  0  0  0  0  0  0  0  0  0  0
    9.0258   15.2254   21.7126 C    0  0  0  0  0  0  0  0  0  0  0  0
    9.1127   14.7453   23.1375 N    0  0  0  0  0  0  0  0  0  0  0  0
    8.2479   13.8054   23.6769 C    0  0  0  0  0  0  0  0  0  0  0  0
    7.3096   13.3735   23.0252 O    0  0  0  0  0  0  0  0  0  0  0  0
    8.4684   13.2994   25.1196 C    0  0  0  0  0  0  0  0  0  0  0  0
    7.5290   12.1468   25.5585 C    0  0  0  0  0  0  0  0  0  0  0  0
    6.3820   12.4128   26.3644 C    0  0  0  0  0  0  0  0  0  0  0  0
    5.9092   14.0339   26.9425 S    0  0  0  0  0  0  0  0  0  0  0  0
    4.7094   14.5087   25.6580 C    0  0  0  0  0  0  0  0  0  0  0  0
    7.7604   10.7968   25.1541 C    0  0  0  0  0  0  0  0  0  0  0  0
    9.2777   10.2053   24.1329 BR   0  0  0  0  0  0  0  0  0  0  0  0
    6.8573    9.7836   25.5165 C    0  0  0  0  0  0  0  0  0  0  0  0
    5.7516   10.0641   26.3211 C    0  0  0  0  0  0  0  0  0  0  0  0
    5.5196   11.3720   26.7471 C    0  0  0  0  0  0  0  0  0  0  0  0
   10.9328   15.4415   17.6342 H    0  0  0  0  0  0  0  0  0  0  0  0
   11.7562   14.4814   18.8322 H    0  0  0  0  0  0  0  0  0  0  0  0
   10.7467   14.2109   20.9225 H    0  0  0  0  0  0  0  0  0  0  0  0
   12.4427   15.9657   21.2826 H    0  0  0  0  0  0  0  0  0  0  0  0
   11.2176   17.1400   21.7347 H    0  0  0  0  0  0  0  0  0  0  0  0
   11.9926   14.5808   23.2379 H    0  0  0  0  0  0  0  0  0  0  0  0
   12.2057   16.2334   23.7849 H    0  0  0  0  0  0  0  0  0  0  0  0
   10.3077   15.1797   24.9083 H    0  0  0  0  0  0  0  0  0  0  0  0
    9.7727   16.5625   24.0107 H    0  0  0  0  0  0  0  0  0  0  0  0
    8.3509   14.6102   21.1110 H    0  0  0  0  0  0  0  0  0  0  0  0
    8.5719   16.2249   21.7191 H    0  0  0  0  0  0  0  0  0  0  0  0
    9.5059   12.9840   25.2503 H    0  0  0  0  0  0  0  0  0  0  0  0
    8.3890   14.1389   25.8090 H    0  0  0  0  0  0  0  0  0  0  0  0
    5.1922   14.4917   24.6769 H    0  0  0  0  0  0  0  0  0  0  0  0
    4.3217   15.5103   25.8560 H    0  0  0  0  0  0  0  0  0  0  0  0
    3.8705   13.8088   25.6568 H    0  0  0  0  0  0  0  0  0  0  0  0
    7.0158    8.7534   25.2009 H    0  0  0  0  0  0  0  0  0  0  0  0
    5.0777    9.2663   26.6241 H    0  0  0  0  0  0  0  0  0  0  0  0
    4.6528   11.5791   27.3707 H    0  0  0  0  0  0  0  0  0  0  0  0
  9 10  1  0  0  0  0
  7  9  1  0  0  0  0
  6  7  1  0  0  0  0
  5  6  1  0  0  0  0
  4  5  1  0  0  0  0
  2  4  1  0  0  0  0
  1  2  2  0  0  0  0
  3  2  1  0  0  0  0
 22  3  1  0  0  0  0
 23  3  1  0  0  0  0
 24  4  1  0  0  0  0
 25  5  1  0  0  0  0
 26  5  1  0  0  0  0
 27  6  1  0  0  0  0
 28  6  1  0  0  0  0
 29  7  1  0  0  0  0
 30  7  1  0  0  0  0
  8  4  1  0  0  0  0
 31  8  1  0  0  0  0
 32  8  1  0  0  0  0
 11 10  2  0  0  0  0
 12 10  1  0  0  0  0
 33 12  1  0  0  0  0
 34 12  1  0  0  0  0
 13 12  1  0  0  0  0
 14 13  1  0  0  0  0
 21 14  2  0  0  0  0
 15 14  1  0  0  0  0
 16 15  1  0  0  0  0
 35 16  1  0  0  0  0
 36 16  1  0  0  0  0
 37 16  1  0  0  0  0
 17 13  2  0  0  0  0
 18 17  1  0  0  0  0
 19 17  1  0  0  0  0
 38 19  1  0  0  0  0
 20 19  2  0  0  0  0
 39 20  1  0  0  0  0
 40 21  1  0  0  0  0
  9  8  1  0  0  0  0
 21 20  1  0  0  0  0
M  END
>  <FittedScore>
-30.29

$$$$
