A71EV2A-x4701a_best-RMSD
  FITTED

 40 41     0  0  0  0  0  0  0999 V2000
    9.6508   16.5490   19.2916 O    0  0  0  0  0  0  0  0  0  0  0  0
   10.2718   15.5499   19.6140 C    0  0  0  0  0  0  0  0  0  0  0  0
   10.7617   14.7120   18.6837 N    0  0  0  0  0  0  0  0  0  0  0  0
   10.3574   15.0098   21.0383 C    0  0  0  0  0  0  0  0  0  0  0  0
   11.3690   15.8151   21.8994 C    0  0  0  0  0  0  0  0  0  0  0  0
   11.4228   15.2843   23.3612 C    0  0  0  0  0  0  0  0  0  0  0  0
   10.0030   15.0967   23.9644 C    0  0  0  0  0  0  0  0  0  0  0  0
    8.9712   14.9194   21.7327 C    0  0  0  0  0  0  0  0  0  0  0  0
    9.0875   14.2946   23.0850 N    0  0  0  0  0  0  0  0  0  0  0  0
    8.4955   13.0908   23.3972 C    0  0  0  0  0  0  0  0  0  0  0  0
    7.5068   12.7155   22.7878 O    0  0  0  0  0  0  0  0  0  0  0  0
    9.2347   12.1507   24.3665 C    0  0  0  0  0  0  0  0  0  0  0  0
    8.7871   10.6644   24.3421 C    0  0  0  0  0  0  0  0  0  0  0  0
    9.3062    9.8200   23.2059 C    0  0  0  0  0  0  0  0  0  0  0  0
    9.8535    9.6171   24.5825 C    0  0  0  0  0  0  0  0  0  0  0  0
    7.3634   10.3356   24.8435 C    0  0  0  0  0  0  0  0  0  0  0  0
    7.0300   11.0594   26.4906 S    0  0  0  0  0  0  0  0  0  0  0  0
    5.3999   10.3795   26.8937 C    0  0  0  0  0  0  0  0  0  0  0  0
   10.8287   15.0122   17.7229 H    0  0  0  0  0  0  0  0  0  0  0  0
   11.0174   13.7578   18.9382 H    0  0  0  0  0  0  0  0  0  0  0  0
   10.7354   13.9801   20.9993 H    0  0  0  0  0  0  0  0  0  0  0  0
   12.3618   15.7482   21.4513 H    0  0  0  0  0  0  0  0  0  0  0  0
   11.1019   16.8750   21.9073 H    0  0  0  0  0  0  0  0  0  0  0  0
   11.9517   14.3257   23.3787 H    0  0  0  0  0  0  0  0  0  0  0  0
   12.0043   15.9794   23.9774 H    0  0  0  0  0  0  0  0  0  0  0  0
   10.0936   14.6795   24.9666 H    0  0  0  0  0  0  0  0  0  0  0  0
    9.5583   16.0825   24.1186 H    0  0  0  0  0  0  0  0  0  0  0  0
    8.2847   14.3715   21.0793 H    0  0  0  0  0  0  0  0  0  0  0  0
    8.5270   15.9178   21.8343 H    0  0  0  0  0  0  0  0  0  0  0  0
   10.3031   12.2149   24.1313 H    0  0  0  0  0  0  0  0  0  0  0  0
    9.1655   12.5476   25.3812 H    0  0  0  0  0  0  0  0  0  0  0  0
    8.6629    9.0484   22.7918 H    0  0  0  0  0  0  0  0  0  0  0  0
    9.9569   10.2865   22.4691 H    0  0  0  0  0  0  0  0  0  0  0  0
    9.5846    8.6939   25.0875 H    0  0  0  0  0  0  0  0  0  0  0  0
   10.8759    9.9367   24.7652 H    0  0  0  0  0  0  0  0  0  0  0  0
    6.5985   10.7072   24.1596 H    0  0  0  0  0  0  0  0  0  0  0  0
    7.2000    9.2570   24.9118 H    0  0  0  0  0  0  0  0  0  0  0  0
    4.6734   10.7225   26.1538 H    0  0  0  0  0  0  0  0  0  0  0  0
    5.0959   10.7215   27.8847 H    0  0  0  0  0  0  0  0  0  0  0  0
    5.4346    9.2867   26.8872 H    0  0  0  0  0  0  0  0  0  0  0  0
  9 10  1  0  0  0  0
  7  9  1  0  0  0  0
  6  7  1  0  0  0  0
  5  6  1  0  0  0  0
  4  5  1  0  0  0  0
  2  4  1  0  0  0  0
  1  2  2  0  0  0  0
  3  2  1  0  0  0  0
 19  3  1  0  0  0  0
 20  3  1  0  0  0  0
 21  4  1  0  0  0  0
 22  5  1  0  0  0  0
 23  5  1  0  0  0  0
 24  6  1  0  0  0  0
 25  6  1  0  0  0  0
 26  7  1  0  0  0  0
 27  7  1  0  0  0  0
  8  4  1  0  0  0  0
 28  8  1  0  0  0  0
 29  8  1  0  0  0  0
 11 10  2  0  0  0  0
 12 10  1  0  0  0  0
 30 12  1  0  0  0  0
 31 12  1  0  0  0  0
 13 12  1  0  0  0  0
 15 13  1  0  0  0  0
 14 13  1  0  0  0  0
 32 14  1  0  0  0  0
 33 14  1  0  0  0  0
 34 15  1  0  0  0  0
 35 15  1  0  0  0  0
 16 13  1  0  0  0  0
 36 16  1  0  0  0  0
 37 16  1  0  0  0  0
 17 16  1  0  0  0  0
 18 17  1  0  0  0  0
 38 18  1  0  0  0  0
 39 18  1  0  0  0  0
 40 18  1  0  0  0  0
  9  8  1  0  0  0  0
 15 14  1  0  0  0  0
M  END
>  <FittedScore>
-25.00

$$$$
