A71EV2A-x4701a_lowest-energy
  FITTED

 40 41     0  0  0  0  0  0  0999 V2000
    9.6080   16.5450   19.3979 O    0  0  0  0  0  0  0  0  0  0  0  0
   10.2197   15.5353   19.6969 C    0  0  0  0  0  0  0  0  0  0  0  0
   10.6833   14.7202   18.7321 N    0  0  0  0  0  0  0  0  0  0  0  0
   10.3457   14.9732   21.1149 C    0  0  0  0  0  0  0  0  0  0  0  0
   11.2686   15.8412   22.0147 C    0  0  0  0  0  0  0  0  0  0  0  0
   11.3699   15.2413   23.4426 C    0  0  0  0  0  0  0  0  0  0  0  0
    9.9682   14.9234   24.0336 C    0  0  0  0  0  0  0  0  0  0  0  0
    8.9616   14.7186   21.7831 C    0  0  0  0  0  0  0  0  0  0  0  0
    9.1041   14.0891   23.1335 N    0  0  0  0  0  0  0  0  0  0  0  0
    8.5013   12.8967   23.4682 C    0  0  0  0  0  0  0  0  0  0  0  0
    7.5068   12.5205   22.8757 O    0  0  0  0  0  0  0  0  0  0  0  0
    9.2374   11.9731   24.4549 C    0  0  0  0  0  0  0  0  0  0  0  0
    8.7992   10.4853   24.4446 C    0  0  0  0  0  0  0  0  0  0  0  0
    9.2809    9.6367   23.2891 C    0  0  0  0  0  0  0  0  0  0  0  0
    9.8915    9.4602   24.6446 C    0  0  0  0  0  0  0  0  0  0  0  0
    7.3948   10.1455   24.9937 C    0  0  0  0  0  0  0  0  0  0  0  0
    7.0197   10.9791   26.5782 S    0  0  0  0  0  0  0  0  0  0  0  0
    5.3903   10.3025   26.9879 C    0  0  0  0  0  0  0  0  0  0  0  0
   10.9555   13.7675   18.9609 H    0  0  0  0  0  0  0  0  0  0  0  0
   10.6874   15.0239   17.7714 H    0  0  0  0  0  0  0  0  0  0  0  0
   10.8314   13.9893   21.0613 H    0  0  0  0  0  0  0  0  0  0  0  0
   12.2676   15.8916   21.5723 H    0  0  0  0  0  0  0  0  0  0  0  0
   10.8951   16.8680   22.0682 H    0  0  0  0  0  0  0  0  0  0  0  0
   11.9690   14.3261   23.4150 H    0  0  0  0  0  0  0  0  0  0  0  0
   11.8959   15.9427   24.0950 H    0  0  0  0  0  0  0  0  0  0  0  0
   10.1056   14.4777   25.0182 H    0  0  0  0  0  0  0  0  0  0  0  0
    9.4430   15.8620   24.2300 H    0  0  0  0  0  0  0  0  0  0  0  0
    8.3802   14.0894   21.1036 H    0  0  0  0  0  0  0  0  0  0  0  0
    8.3974   15.6497   21.8798 H    0  0  0  0  0  0  0  0  0  0  0  0
   10.3049   12.0403   24.2206 H    0  0  0  0  0  0  0  0  0  0  0  0
    9.1565   12.3852   25.4633 H    0  0  0  0  0  0  0  0  0  0  0  0
    8.6393    8.8429   22.9158 H    0  0  0  0  0  0  0  0  0  0  0  0
    9.8982   10.0964   22.5217 H    0  0  0  0  0  0  0  0  0  0  0  0
    9.6579    8.5462   25.1845 H    0  0  0  0  0  0  0  0  0  0  0  0
   10.9128    9.8052   24.7860 H    0  0  0  0  0  0  0  0  0  0  0  0
    6.6140   10.4363   24.2884 H    0  0  0  0  0  0  0  0  0  0  0  0
    7.2695    9.0703   25.1490 H    0  0  0  0  0  0  0  0  0  0  0  0
    5.4781    9.2269   27.1563 H    0  0  0  0  0  0  0  0  0  0  0  0
    4.6923   10.4843   26.1652 H    0  0  0  0  0  0  0  0  0  0  0  0
    5.0138   10.7880   27.8920 H    0  0  0  0  0  0  0  0  0  0  0  0
  9 10  1  0  0  0  0
  7  9  1  0  0  0  0
  6  7  1  0  0  0  0
  5  6  1  0  0  0  0
  4  5  1  0  0  0  0
  2  4  1  0  0  0  0
  1  2  2  0  0  0  0
  3  2  1  0  0  0  0
 19  3  1  0  0  0  0
 20  3  1  0  0  0  0
 21  4  1  0  0  0  0
 22  5  1  0  0  0  0
 23  5  1  0  0  0  0
 24  6  1  0  0  0  0
 25  6  1  0  0  0  0
 26  7  1  0  0  0  0
 27  7  1  0  0  0  0
  8  4  1  0  0  0  0
 28  8  1  0  0  0  0
 29  8  1  0  0  0  0
 11 10  2  0  0  0  0
 12 10  1  0  0  0  0
 30 12  1  0  0  0  0
 31 12  1  0  0  0  0
 13 12  1  0  0  0  0
 15 13  1  0  0  0  0
 14 13  1  0  0  0  0
 32 14  1  0  0  0  0
 33 14  1  0  0  0  0
 34 15  1  0  0  0  0
 35 15  1  0  0  0  0
 16 13  1  0  0  0  0
 36 16  1  0  0  0  0
 37 16  1  0  0  0  0
 17 16  1  0  0  0  0
 18 17  1  0  0  0  0
 38 18  1  0  0  0  0
 39 18  1  0  0  0  0
 40 18  1  0  0  0  0
  9  8  1  0  0  0  0
 15 14  1  0  0  0  0
M  END
>  <FittedScore>
-25.25

$$$$
