A71EV2A-x3956a_lowest-energy
  FITTED

 37 38     0  0  0  0  0  0  0999 V2000
   11.3079   15.9297   24.2284 O    0  0  0  0  0  0  0  0  0  0  0  0
   10.8080   15.6757   23.1523 C    0  0  0  0  0  0  0  0  0  0  0  0
   11.3984   16.0364   21.8105 C    0  0  0  0  0  0  0  0  0  0  0  0
   10.6620   15.0957   20.8376 C    0  0  0  0  0  0  0  0  0  0  0  0
   10.5198   15.6033   19.4099 C    0  0  0  0  0  0  0  0  0  0  0  0
    9.5758   16.2388   18.9872 O    0  0  0  0  0  0  0  0  0  0  0  0
   11.4190   15.1302   18.5311 N    0  0  0  0  0  0  0  0  0  0  0  0
    9.3317   14.7707   21.5529 C    0  0  0  0  0  0  0  0  0  0  0  0
    9.6705   14.9711   22.9580 N    0  0  0  0  0  0  0  0  0  0  0  0
    8.7940   14.3308   23.9667 C    0  0  0  0  0  0  0  0  0  0  0  0
    9.2424   12.8960   24.3689 C    0  0  0  0  0  0  0  0  0  0  0  0
    8.1406   11.9463   24.8892 C    0  0  0  0  0  0  0  0  0  0  0  0
    8.1152   10.5648   24.5598 C    0  0  0  0  0  0  0  0  0  0  0  0
    9.0856   10.0740   23.6897 O    0  0  0  0  0  0  0  0  0  0  0  0
    9.3040    8.6895   23.3416 C    0  0  0  0  0  0  0  0  0  0  0  0
    7.1790   12.4443   25.7944 C    0  0  0  0  0  0  0  0  0  0  0  0
    6.2101   11.6083   26.3549 C    0  0  0  0  0  0  0  0  0  0  0  0
    6.1851   10.2500   26.0295 C    0  0  0  0  0  0  0  0  0  0  0  0
    7.1208    9.7312   25.1255 C    0  0  0  0  0  0  0  0  0  0  0  0
   11.2150   17.0932   21.5852 H    0  0  0  0  0  0  0  0  0  0  0  0
   12.4759   15.8538   21.7900 H    0  0  0  0  0  0  0  0  0  0  0  0
   11.2230   14.1537   20.8205 H    0  0  0  0  0  0  0  0  0  0  0  0
   11.2613   15.2860   17.5410 H    0  0  0  0  0  0  0  0  0  0  0  0
   12.1887   14.5297   18.8150 H    0  0  0  0  0  0  0  0  0  0  0  0
    8.5181   15.4518   21.2847 H    0  0  0  0  0  0  0  0  0  0  0  0
    9.0141   13.7462   21.3352 H    0  0  0  0  0  0  0  0  0  0  0  0
    8.7534   14.9617   24.8577 H    0  0  0  0  0  0  0  0  0  0  0  0
    7.7698   14.3004   23.5813 H    0  0  0  0  0  0  0  0  0  0  0  0
    9.7694   12.4596   23.5174 H    0  0  0  0  0  0  0  0  0  0  0  0
    9.9992   12.9790   25.1579 H    0  0  0  0  0  0  0  0  0  0  0  0
    9.6549    8.1359   24.2161 H    0  0  0  0  0  0  0  0  0  0  0  0
   10.0664    8.6409   22.5625 H    0  0  0  0  0  0  0  0  0  0  0  0
    8.3929    8.2326   22.9471 H    0  0  0  0  0  0  0  0  0  0  0  0
    7.1780   13.4936   26.0797 H    0  0  0  0  0  0  0  0  0  0  0  0
    5.4752   12.0148   27.0464 H    0  0  0  0  0  0  0  0  0  0  0  0
    5.4388    9.5978   26.4749 H    0  0  0  0  0  0  0  0  0  0  0  0
    7.0522    8.6741   24.8848 H    0  0  0  0  0  0  0  0  0  0  0  0
 10 11  1  0  0  0  0
  9 10  1  0  0  0  0
  8  9  1  0  0  0  0
  4  8  1  0  0  0  0
  5  4  1  0  0  0  0
  3  4  1  0  0  0  0
  2  3  1  0  0  0  0
  1  2  2  0  0  0  0
 20  3  1  0  0  0  0
 21  3  1  0  0  0  0
 22  4  1  0  0  0  0
  6  5  2  0  0  0  0
  7  5  1  0  0  0  0
 23  7  1  0  0  0  0
 24  7  1  0  0  0  0
 25  8  1  0  0  0  0
 26  8  1  0  0  0  0
 27 10  1  0  0  0  0
 28 10  1  0  0  0  0
 29 11  1  0  0  0  0
 30 11  1  0  0  0  0
 12 11  1  0  0  0  0
 13 12  1  0  0  0  0
 19 13  2  0  0  0  0
 14 13  1  0  0  0  0
 15 14  1  0  0  0  0
 31 15  1  0  0  0  0
 32 15  1  0  0  0  0
 33 15  1  0  0  0  0
 16 12  2  0  0  0  0
 34 16  1  0  0  0  0
 17 16  1  0  0  0  0
 35 17  1  0  0  0  0
 18 17  2  0  0  0  0
 36 18  1  0  0  0  0
 37 19  1  0  0  0  0
  9  2  1  0  0  0  0
 19 18  1  0  0  0  0
M  END
>  <FittedScore>
-28.08

$$$$
