A71EV2A-x5995a_lowest-energy
  FITTED

 47 49     0  0  0  0  0  0  0999 V2000
    9.3431    8.9462   23.3821 C    0  0  0  0  0  0  0  0  0  0  0  0
    9.0637   10.7201   23.6709 S    0  0  0  0  0  0  0  0  0  0  0  0
    7.5437   10.9040   24.6142 C    0  0  0  0  0  0  0  0  0  0  0  0
    7.0540    9.8292   25.3835 C    0  0  0  0  0  0  0  0  0  0  0  0
    5.9448    9.9829   26.2138 C    0  0  0  0  0  0  0  0  0  0  0  0
    5.3115   11.2199   26.3083 C    0  0  0  0  0  0  0  0  0  0  0  0
    5.7572   12.3080   25.5384 C    0  0  0  0  0  0  0  0  0  0  0  0
    6.8550   12.1497   24.6439 C    0  0  0  0  0  0  0  0  0  0  0  0
    7.3123   13.3631   23.7764 C    0  0  0  0  0  0  0  0  0  0  0  0
    8.6047   14.0201   24.3268 C    0  0  0  0  0  0  0  0  0  0  0  0
    8.9448   13.7430   25.4645 O    0  0  0  0  0  0  0  0  0  0  0  0
    9.3266   14.9416   23.5829 N    0  0  0  0  0  0  0  0  0  0  0  0
   10.3446   15.8573   24.2102 C    0  0  0  0  0  0  0  0  0  0  0  0
   11.6849   15.9177   23.4415 C    0  0  0  0  0  0  0  0  0  0  0  0
   11.4817   16.2994   21.9564 C    0  0  0  0  0  0  0  0  0  0  0  0
   10.4411   15.3508   21.2918 C    0  0  0  0  0  0  0  0  0  0  0  0
   10.2002   15.7526   19.8347 C    0  0  0  0  0  0  0  0  0  0  0  0
   10.5686   14.8485   18.9032 N    0  0  0  0  0  0  0  0  0  0  0  0
    9.6839   16.8037   19.5006 O    0  0  0  0  0  0  0  0  0  0  0  0
    9.1217   15.2942   22.1293 C    0  0  0  0  0  0  0  0  0  0  0  0
    6.1730   14.4136   23.5690 C    0  0  0  0  0  0  0  0  0  0  0  0
    5.5532   14.8478   24.9150 C    0  0  0  0  0  0  0  0  0  0  0  0
    4.9892   13.6289   25.6800 C    0  0  0  0  0  0  0  0  0  0  0  0
   10.2030    8.8274   22.7217 H    0  0  0  0  0  0  0  0  0  0  0  0
    8.4638    8.5123   22.9013 H    0  0  0  0  0  0  0  0  0  0  0  0
    9.5539    8.4319   24.3217 H    0  0  0  0  0  0  0  0  0  0  0  0
    7.5427    8.8614   25.3878 H    0  0  0  0  0  0  0  0  0  0  0  0
    5.5833    9.1441   26.8042 H    0  0  0  0  0  0  0  0  0  0  0  0
    4.4609   11.3315   26.9758 H    0  0  0  0  0  0  0  0  0  0  0  0
    7.5220   12.9590   22.7863 H    0  0  0  0  0  0  0  0  0  0  0  0
   10.5874   15.5741   25.2369 H    0  0  0  0  0  0  0  0  0  0  0  0
    9.9158   16.8632   24.2832 H    0  0  0  0  0  0  0  0  0  0  0  0
   12.1905   14.9499   23.5098 H    0  0  0  0  0  0  0  0  0  0  0  0
   12.3400   16.6543   23.9147 H    0  0  0  0  0  0  0  0  0  0  0  0
   12.4364   16.2250   21.4302 H    0  0  0  0  0  0  0  0  0  0  0  0
   11.1593   17.3445   21.8853 H    0  0  0  0  0  0  0  0  0  0  0  0
   10.8681   14.3381   21.3188 H    0  0  0  0  0  0  0  0  0  0  0  0
   10.5342   15.0914   17.9206 H    0  0  0  0  0  0  0  0  0  0  0  0
   10.8438   13.9057   19.1764 H    0  0  0  0  0  0  0  0  0  0  0  0
    8.4629   14.5949   21.6185 H    0  0  0  0  0  0  0  0  0  0  0  0
    8.6171   16.2658   22.0831 H    0  0  0  0  0  0  0  0  0  0  0  0
    5.3987   13.9699   22.9349 H    0  0  0  0  0  0  0  0  0  0  0  0
    6.5124   15.3032   23.0384 H    0  0  0  0  0  0  0  0  0  0  0  0
    4.7564   15.5739   24.7363 H    0  0  0  0  0  0  0  0  0  0  0  0
    6.3045   15.3470   25.5335 H    0  0  0  0  0  0  0  0  0  0  0  0
    3.9592   13.4657   25.3527 H    0  0  0  0  0  0  0  0  0  0  0  0
    4.9389   13.8942   26.7390 H    0  0  0  0  0  0  0  0  0  0  0  0
  9 10  1  0  0  0  0
  8  9  1  0  0  0  0
  7  8  2  0  0  0  0
  6  7  1  0  0  0  0
  5  6  2  0  0  0  0
  4  5  1  0  0  0  0
  3  4  2  0  0  0  0
  2  3  1  0  0  0  0
  1  2  1  0  0  0  0
 24  1  1  0  0  0  0
 25  1  1  0  0  0  0
 26  1  1  0  0  0  0
 27  4  1  0  0  0  0
 28  5  1  0  0  0  0
 29  6  1  0  0  0  0
 21  9  1  0  0  0  0
 30  9  1  0  0  0  0
 11 10  2  0  0  0  0
 12 10  1  0  0  0  0
 13 12  1  0  0  0  0
 14 13  1  0  0  0  0
 31 13  1  0  0  0  0
 32 13  1  0  0  0  0
 15 14  1  0  0  0  0
 33 14  1  0  0  0  0
 34 14  1  0  0  0  0
 16 15  1  0  0  0  0
 35 15  1  0  0  0  0
 36 15  1  0  0  0  0
 17 16  1  0  0  0  0
 20 16  1  0  0  0  0
 37 16  1  0  0  0  0
 18 17  1  0  0  0  0
 19 17  2  0  0  0  0
 38 18  1  0  0  0  0
 39 18  1  0  0  0  0
 40 20  1  0  0  0  0
 41 20  1  0  0  0  0
 22 21  1  0  0  0  0
 42 21  1  0  0  0  0
 43 21  1  0  0  0  0
 23 22  1  0  0  0  0
 44 22  1  0  0  0  0
 45 22  1  0  0  0  0
 46 23  1  0  0  0  0
 47 23  1  0  0  0  0
  8  3  1  0  0  0  0
 20 12  1  0  0  0  0
 23  7  1  0  0  0  0
M  END
>  <FittedScore>
-34.51

$$$$
