A71EV2A-x7018a_lowest-energy
  FITTED

 61 63     0  0  0  0  0  0  0999 V2000
    0.5142   12.5828   23.1948 C    0  0  0  0  0  0  0  0  0  0  0  0
    1.2044   13.0037   24.4050 O    0  0  0  0  0  0  0  0  0  0  0  0
    2.2631   13.8689   24.3697 C    0  0  0  0  0  0  0  0  0  0  0  0
    2.6577   14.3533   23.3233 O    0  0  0  0  0  0  0  0  0  0  0  0
    2.8749   14.1741   25.5624 N    0  0  0  0  0  0  0  0  0  0  0  0
    2.4166   13.7220   26.9209 C    0  0  0  0  0  0  0  0  0  0  0  0
    3.3532   12.7117   27.6435 C    0  0  0  0  0  0  0  0  0  0  0  0
    4.8691   13.0991   27.7607 C    0  0  0  0  0  0  0  0  0  0  0  0
    5.5946   13.0297   26.4503 N    0  0  0  0  0  0  0  0  0  0  0  0
    6.2835   11.8577   26.0690 C    0  0  0  0  0  0  0  0  0  0  0  0
    5.6669   10.6768   26.4018 N    0  0  0  0  0  0  0  0  0  0  0  0
    6.1937    9.4984   25.9938 C    0  0  0  0  0  0  0  0  0  0  0  0
    7.3142    9.3876   25.2450 N    0  0  0  0  0  0  0  0  0  0  0  0
    8.0003   10.5223   24.9355 C    0  0  0  0  0  0  0  0  0  0  0  0
    9.4970   10.3231   23.9601 S    0  0  0  0  0  0  0  0  0  0  0  0
    9.6313    8.5646   23.5234 C    0  0  0  0  0  0  0  0  0  0  0  0
    7.5339   11.8064   25.3578 C    0  0  0  0  0  0  0  0  0  0  0  0
    8.4041   13.0505   25.0641 C    0  0  0  0  0  0  0  0  0  0  0  0
    8.2879   13.5963   23.6241 C    0  0  0  0  0  0  0  0  0  0  0  0
    7.5387   13.0510   22.8269 O    0  0  0  0  0  0  0  0  0  0  0  0
    9.0584   14.6749   23.2335 N    0  0  0  0  0  0  0  0  0  0  0  0
   10.0094   15.4652   24.0958 C    0  0  0  0  0  0  0  0  0  0  0  0
   11.4500   15.5588   23.5162 C    0  0  0  0  0  0  0  0  0  0  0  0
   11.4591   16.0729   22.0522 C    0  0  0  0  0  0  0  0  0  0  0  0
   10.4642   15.2452   21.1917 C    0  0  0  0  0  0  0  0  0  0  0  0
   10.4447   15.7326   19.7477 C    0  0  0  0  0  0  0  0  0  0  0  0
   10.8391   14.8274   18.8280 N    0  0  0  0  0  0  0  0  0  0  0  0
   10.0458   16.8295   19.4052 O    0  0  0  0  0  0  0  0  0  0  0  0
    9.0433   15.2358   21.8367 C    0  0  0  0  0  0  0  0  0  0  0  0
    5.4230   14.2000   25.5146 C    0  0  0  0  0  0  0  0  0  0  0  0
    4.1078   15.0235   25.6362 C    0  0  0  0  0  0  0  0  0  0  0  0
    0.0461   13.4415   22.6967 H    0  0  0  0  0  0  0  0  0  0  0  0
   -0.2604   11.8679   23.4701 H    0  0  0  0  0  0  0  0  0  0  0  0
    1.2154   12.1025   22.5017 H    0  0  0  0  0  0  0  0  0  0  0  0
    1.4201   13.2795   26.8767 H    0  0  0  0  0  0  0  0  0  0  0  0
    2.2787   14.5976   27.5582 H    0  0  0  0  0  0  0  0  0  0  0  0
    3.2370   11.7338   27.1713 H    0  0  0  0  0  0  0  0  0  0  0  0
    2.9686   12.5853   28.6604 H    0  0  0  0  0  0  0  0  0  0  0  0
    5.3314   12.4346   28.4952 H    0  0  0  0  0  0  0  0  0  0  0  0
    4.9590   14.0873   28.2207 H    0  0  0  0  0  0  0  0  0  0  0  0
    5.6603    8.5868   26.2541 H    0  0  0  0  0  0  0  0  0  0  0  0
   10.5342    8.4040   22.9316 H    0  0  0  0  0  0  0  0  0  0  0  0
    8.7623    8.2592   22.9393 H    0  0  0  0  0  0  0  0  0  0  0  0
    9.6977    7.9710   24.4334 H    0  0  0  0  0  0  0  0  0  0  0  0
    9.4424   12.8024   25.2876 H    0  0  0  0  0  0  0  0  0  0  0  0
    8.2018   13.8371   25.7881 H    0  0  0  0  0  0  0  0  0  0  0  0
   10.1133   15.0699   25.1042 H    0  0  0  0  0  0  0  0  0  0  0  0
    9.6167   16.4800   24.2278 H    0  0  0  0  0  0  0  0  0  0  0  0
   11.9357   14.5789   23.5593 H    0  0  0  0  0  0  0  0  0  0  0  0
   12.0488   16.2320   24.1343 H    0  0  0  0  0  0  0  0  0  0  0  0
   12.4664   15.9826   21.6372 H    0  0  0  0  0  0  0  0  0  0  0  0
   11.1966   17.1360   22.0290 H    0  0  0  0  0  0  0  0  0  0  0  0
   10.8182   14.2047   21.2022 H    0  0  0  0  0  0  0  0  0  0  0  0
   11.0115   13.8580   19.1067 H    0  0  0  0  0  0  0  0  0  0  0  0
   10.8399   15.0870   17.8494 H    0  0  0  0  0  0  0  0  0  0  0  0
    8.3865   14.6870   21.1568 H    0  0  0  0  0  0  0  0  0  0  0  0
    8.6332   16.2519   21.8641 H    0  0  0  0  0  0  0  0  0  0  0  0
    5.4778   13.8554   24.4784 H    0  0  0  0  0  0  0  0  0  0  0  0
    6.2317   14.9160   25.6415 H    0  0  0  0  0  0  0  0  0  0  0  0
    4.1011   15.7912   24.8559 H    0  0  0  0  0  0  0  0  0  0  0  0
    4.1255   15.6218   26.5499 H    0  0  0  0  0  0  0  0  0  0  0  0
 18 19  1  0  0  0  0
 17 18  1  0  0  0  0
 14 17  2  0  0  0  0
 13 14  1  0  0  0  0
 12 13  2  0  0  0  0
 11 12  1  0  0  0  0
 10 11  2  0  0  0  0
  9 10  1  0  0  0  0
  8  9  1  0  0  0  0
  7  8  1  0  0  0  0
  6  7  1  0  0  0  0
  5  6  1  0  0  0  0
  3  5  1  0  0  0  0
  2  3  1  0  0  0  0
  1  2  1  0  0  0  0
 32  1  1  0  0  0  0
 33  1  1  0  0  0  0
 34  1  1  0  0  0  0
  4  3  2  0  0  0  0
 35  6  1  0  0  0  0
 36  6  1  0  0  0  0
 37  7  1  0  0  0  0
 38  7  1  0  0  0  0
 39  8  1  0  0  0  0
 40  8  1  0  0  0  0
 30  9  1  0  0  0  0
 41 12  1  0  0  0  0
 15 14  1  0  0  0  0
 16 15  1  0  0  0  0
 42 16  1  0  0  0  0
 43 16  1  0  0  0  0
 44 16  1  0  0  0  0
 45 18  1  0  0  0  0
 46 18  1  0  0  0  0
 20 19  2  0  0  0  0
 21 19  1  0  0  0  0
 22 21  1  0  0  0  0
 23 22  1  0  0  0  0
 47 22  1  0  0  0  0
 48 22  1  0  0  0  0
 24 23  1  0  0  0  0
 49 23  1  0  0  0  0
 50 23  1  0  0  0  0
 25 24  1  0  0  0  0
 51 24  1  0  0  0  0
 52 24  1  0  0  0  0
 26 25  1  0  0  0  0
 29 25  1  0  0  0  0
 53 25  1  0  0  0  0
 27 26  1  0  0  0  0
 28 26  2  0  0  0  0
 54 27  1  0  0  0  0
 55 27  1  0  0  0  0
 56 29  1  0  0  0  0
 57 29  1  0  0  0  0
 31 30  1  0  0  0  0
 58 30  1  0  0  0  0
 59 30  1  0  0  0  0
 60 31  1  0  0  0  0
 61 31  1  0  0  0  0
 17 10  1  0  0  0  0
 29 21  1  0  0  0  0
 31  5  1  0  0  0  0
M  END
>  <FittedScore>
-38.48

$$$$
