A71EV2A-x7018a_best-RMSD
  FITTED

 61 63     0  0  0  0  0  0  0999 V2000
    0.5587   12.7279   23.1930 C    0  0  0  0  0  0  0  0  0  0  0  0
    1.3084   13.0379   24.3987 O    0  0  0  0  0  0  0  0  0  0  0  0
    2.3491   13.9280   24.4028 C    0  0  0  0  0  0  0  0  0  0  0  0
    2.6653   14.5511   23.4024 O    0  0  0  0  0  0  0  0  0  0  0  0
    3.0428   14.0424   25.5830 N    0  0  0  0  0  0  0  0  0  0  0  0
    2.8067   13.1490   26.7665 C    0  0  0  0  0  0  0  0  0  0  0  0
    3.6929   13.2521   28.0610 C    0  0  0  0  0  0  0  0  0  0  0  0
    5.2604   13.2498   27.9253 C    0  0  0  0  0  0  0  0  0  0  0  0
    5.7778   13.0731   26.5374 N    0  0  0  0  0  0  0  0  0  0  0  0
    6.3761   11.8727   26.1330 C    0  0  0  0  0  0  0  0  0  0  0  0
    5.7030   10.7291   26.4763 N    0  0  0  0  0  0  0  0  0  0  0  0
    6.1807    9.5321   26.0514 C    0  0  0  0  0  0  0  0  0  0  0  0
    7.2797    9.3751   25.2720 N    0  0  0  0  0  0  0  0  0  0  0  0
    8.0065   10.4820   24.9457 C    0  0  0  0  0  0  0  0  0  0  0  0
    9.4813   10.2486   23.9432 S    0  0  0  0  0  0  0  0  0  0  0  0
    9.4703    8.5274   23.3786 C    0  0  0  0  0  0  0  0  0  0  0  0
    7.6005   11.7784   25.3887 C    0  0  0  0  0  0  0  0  0  0  0  0
    8.4858   13.0071   25.0726 C    0  0  0  0  0  0  0  0  0  0  0  0
    8.3066   13.5866   23.6538 C    0  0  0  0  0  0  0  0  0  0  0  0
    7.5314   13.0482   22.8743 O    0  0  0  0  0  0  0  0  0  0  0  0
    9.0374   14.6910   23.2668 N    0  0  0  0  0  0  0  0  0  0  0  0
   10.0132   15.4754   24.1071 C    0  0  0  0  0  0  0  0  0  0  0  0
   11.4359   15.5572   23.4853 C    0  0  0  0  0  0  0  0  0  0  0  0
   11.4062   16.0632   22.0185 C    0  0  0  0  0  0  0  0  0  0  0  0
   10.3647   15.2549   21.1933 C    0  0  0  0  0  0  0  0  0  0  0  0
   10.3246   15.7224   19.7473 C    0  0  0  0  0  0  0  0  0  0  0  0
   10.8145   14.8438   18.8541 N    0  0  0  0  0  0  0  0  0  0  0  0
    9.8246   16.7742   19.3858 O    0  0  0  0  0  0  0  0  0  0  0  0
    8.9657   15.2750   21.8839 C    0  0  0  0  0  0  0  0  0  0  0  0
    5.5507   14.2063   25.5838 C    0  0  0  0  0  0  0  0  0  0  0  0
    4.2068   14.9602   25.7180 C    0  0  0  0  0  0  0  0  0  0  0  0
    1.2316   12.3307   22.4265 H    0  0  0  0  0  0  0  0  0  0  0  0
    0.0531   13.6231   22.8173 H    0  0  0  0  0  0  0  0  0  0  0  0
   -0.1966   11.9761   23.4252 H    0  0  0  0  0  0  0  0  0  0  0  0
    2.8573   12.1133   26.4188 H    0  0  0  0  0  0  0  0  0  0  0  0
    1.7707   13.3084   27.0817 H    0  0  0  0  0  0  0  0  0  0  0  0
    3.4087   12.4262   28.7160 H    0  0  0  0  0  0  0  0  0  0  0  0
    3.3950   14.1557   28.6031 H    0  0  0  0  0  0  0  0  0  0  0  0
    5.6661   12.4896   28.5996 H    0  0  0  0  0  0  0  0  0  0  0  0
    5.6408   14.1894   28.3365 H    0  0  0  0  0  0  0  0  0  0  0  0
    5.6340    8.6382   26.3436 H    0  0  0  0  0  0  0  0  0  0  0  0
    8.5631    8.3363   22.8043 H    0  0  0  0  0  0  0  0  0  0  0  0
    9.5183    7.8575   24.2361 H    0  0  0  0  0  0  0  0  0  0  0  0
   10.3375    8.3429   22.7398 H    0  0  0  0  0  0  0  0  0  0  0  0
    9.5329   12.7468   25.2306 H    0  0  0  0  0  0  0  0  0  0  0  0
    8.3187   13.7774   25.8245 H    0  0  0  0  0  0  0  0  0  0  0  0
   10.1338   15.0819   25.1138 H    0  0  0  0  0  0  0  0  0  0  0  0
    9.6300   16.4911   24.2454 H    0  0  0  0  0  0  0  0  0  0  0  0
   11.9076   14.5707   23.5179 H    0  0  0  0  0  0  0  0  0  0  0  0
   12.0598   16.2260   24.0815 H    0  0  0  0  0  0  0  0  0  0  0  0
   12.3965   15.9410   21.5714 H    0  0  0  0  0  0  0  0  0  0  0  0
   11.1731   17.1338   21.9928 H    0  0  0  0  0  0  0  0  0  0  0  0
   10.6941   14.2069   21.2124 H    0  0  0  0  0  0  0  0  0  0  0  0
   11.0627   13.9015   19.1568 H    0  0  0  0  0  0  0  0  0  0  0  0
   10.7941   15.0667   17.8696 H    0  0  0  0  0  0  0  0  0  0  0  0
    8.2641   14.7480   21.2306 H    0  0  0  0  0  0  0  0  0  0  0  0
    8.5707   16.2956   21.9436 H    0  0  0  0  0  0  0  0  0  0  0  0
    5.5708   13.8330   24.5577 H    0  0  0  0  0  0  0  0  0  0  0  0
    6.3419   14.9529   25.6664 H    0  0  0  0  0  0  0  0  0  0  0  0
    4.1643   15.7371   24.9557 H    0  0  0  0  0  0  0  0  0  0  0  0
    4.1536   15.5363   26.6440 H    0  0  0  0  0  0  0  0  0  0  0  0
 18 19  1  0  0  0  0
 17 18  1  0  0  0  0
 14 17  2  0  0  0  0
 13 14  1  0  0  0  0
 12 13  2  0  0  0  0
 11 12  1  0  0  0  0
 10 11  2  0  0  0  0
  9 10  1  0  0  0  0
  8  9  1  0  0  0  0
  7  8  1  0  0  0  0
  6  7  1  0  0  0  0
  5  6  1  0  0  0  0
  3  5  1  0  0  0  0
  2  3  1  0  0  0  0
  1  2  1  0  0  0  0
 32  1  1  0  0  0  0
 33  1  1  0  0  0  0
 34  1  1  0  0  0  0
  4  3  2  0  0  0  0
 35  6  1  0  0  0  0
 36  6  1  0  0  0  0
 37  7  1  0  0  0  0
 38  7  1  0  0  0  0
 39  8  1  0  0  0  0
 40  8  1  0  0  0  0
 30  9  1  0  0  0  0
 41 12  1  0  0  0  0
 15 14  1  0  0  0  0
 16 15  1  0  0  0  0
 42 16  1  0  0  0  0
 43 16  1  0  0  0  0
 44 16  1  0  0  0  0
 45 18  1  0  0  0  0
 46 18  1  0  0  0  0
 20 19  2  0  0  0  0
 21 19  1  0  0  0  0
 22 21  1  0  0  0  0
 23 22  1  0  0  0  0
 47 22  1  0  0  0  0
 48 22  1  0  0  0  0
 24 23  1  0  0  0  0
 49 23  1  0  0  0  0
 50 23  1  0  0  0  0
 25 24  1  0  0  0  0
 51 24  1  0  0  0  0
 52 24  1  0  0  0  0
 26 25  1  0  0  0  0
 29 25  1  0  0  0  0
 53 25  1  0  0  0  0
 27 26  1  0  0  0  0
 28 26  2  0  0  0  0
 54 27  1  0  0  0  0
 55 27  1  0  0  0  0
 56 29  1  0  0  0  0
 57 29  1  0  0  0  0
 31 30  1  0  0  0  0
 58 30  1  0  0  0  0
 59 30  1  0  0  0  0
 60 31  1  0  0  0  0
 61 31  1  0  0  0  0
 17 10  1  0  0  0  0
 29 21  1  0  0  0  0
 31  5  1  0  0  0  0
M  END
>  <FittedScore>
-38.48

$$$$
