A71EV2A-x3410a_lowest-energy
  FITTED

 37 39     0  0  0  0  0  0  0999 V2000
   11.5715   14.9443   24.4231 O    0  0  0  0  0  0  0  0  0  0  0  0
   11.2399   13.9760   23.7667 C    0  0  0  0  0  0  0  0  0  0  0  0
   10.1605   13.0224   24.2180 C    0  0  0  0  0  0  0  0  0  0  0  0
   10.0398   11.7178   23.6803 C    0  0  0  0  0  0  0  0  0  0  0  0
    9.2518   13.4368   25.2316 C    0  0  0  0  0  0  0  0  0  0  0  0
    8.2277   12.5897   25.6938 C    0  0  0  0  0  0  0  0  0  0  0  0
    8.1559   11.3054   25.1517 C    0  0  0  0  0  0  0  0  0  0  0  0
    9.0456   10.8797   24.1940 C    0  0  0  0  0  0  0  0  0  0  0  0
    8.7443    9.5778   23.9437 N    0  0  0  0  0  0  0  0  0  0  0  0
    9.5988    8.6153   23.2473 C    0  0  0  0  0  0  0  0  0  0  0  0
    7.7074    9.1478   24.7247 N    0  0  0  0  0  0  0  0  0  0  0  0
    7.2996   10.1445   25.4484 C    0  0  0  0  0  0  0  0  0  0  0  0
    6.1586   10.1170   26.4378 C    0  0  0  0  0  0  0  0  0  0  0  0
   11.7297   13.7883   22.5155 N    0  0  0  0  0  0  0  0  0  0  0  0
   12.6064   14.7411   21.8112 C    0  0  0  0  0  0  0  0  0  0  0  0
   12.2370   14.9205   20.3393 C    0  0  0  0  0  0  0  0  0  0  0  0
   10.9132   15.6051   20.1113 C    0  0  0  0  0  0  0  0  0  0  0  0
   10.4001   16.7527   20.8617 N    0  0  0  0  0  0  0  0  0  0  0  0
    9.2240   17.1033   20.0725 C    0  0  0  0  0  0  0  0  0  0  0  0
    9.0449   16.2307   19.0310 O    0  0  0  0  0  0  0  0  0  0  0  0
   10.0823   15.3449   19.0553 C    0  0  0  0  0  0  0  0  0  0  0  0
   10.7215   11.3479   22.9200 H    0  0  0  0  0  0  0  0  0  0  0  0
    9.3210   14.4325   25.6627 H    0  0  0  0  0  0  0  0  0  0  0  0
    7.5344   12.9156   26.4667 H    0  0  0  0  0  0  0  0  0  0  0  0
    9.1047    7.6531   23.0890 H    0  0  0  0  0  0  0  0  0  0  0  0
   10.5185    8.4219   23.8037 H    0  0  0  0  0  0  0  0  0  0  0  0
    9.8884    8.9856   22.2600 H    0  0  0  0  0  0  0  0  0  0  0  0
    6.5174   10.3452   27.4430 H    0  0  0  0  0  0  0  0  0  0  0  0
    5.6793    9.1364   26.4665 H    0  0  0  0  0  0  0  0  0  0  0  0
    5.4019   10.8549   26.1629 H    0  0  0  0  0  0  0  0  0  0  0  0
   11.3794   13.0125   21.9526 H    0  0  0  0  0  0  0  0  0  0  0  0
   13.6271   14.3610   21.8683 H    0  0  0  0  0  0  0  0  0  0  0  0
   12.6334   15.7259   22.2825 H    0  0  0  0  0  0  0  0  0  0  0  0
   12.2505   13.9481   19.8355 H    0  0  0  0  0  0  0  0  0  0  0  0
   13.0060   15.5187   19.8481 H    0  0  0  0  0  0  0  0  0  0  0  0
    8.5902   17.9516   20.3099 H    0  0  0  0  0  0  0  0  0  0  0  0
   10.2306   14.5632   18.3108 H    0  0  0  0  0  0  0  0  0  0  0  0
  3  2  1  0  0  0  0
  4  3  1  0  0  0  0
 22  4  1  0  0  0  0
  1  2  2  0  0  0  0
  5  3  2  0  0  0  0
 23  5  1  0  0  0  0
  6  5  1  0  0  0  0
 24  6  1  0  0  0  0
  7  6  2  0  0  0  0
  8  4  2  0  0  0  0
  9  8  1  0  0  0  0
 10  9  1  0  0  0  0
 25 10  1  0  0  0  0
 26 10  1  0  0  0  0
 27 10  1  0  0  0  0
 11  9  1  0  0  0  0
 12 11  2  0  0  0  0
 13 12  1  0  0  0  0
 28 13  1  0  0  0  0
 29 13  1  0  0  0  0
 30 13  1  0  0  0  0
 14  2  1  0  0  0  0
 31 14  1  0  0  0  0
 15 14  1  0  0  0  0
 32 15  1  0  0  0  0
 33 15  1  0  0  0  0
 16 15  1  0  0  0  0
 34 16  1  0  0  0  0
 35 16  1  0  0  0  0
 17 16  1  0  0  0  0
 21 17  2  0  0  0  0
 18 17  1  0  0  0  0
 19 18  2  0  0  0  0
 36 19  1  0  0  0  0
 20 19  1  0  0  0  0
 37 21  1  0  0  0  0
  8  7  1  0  0  0  0
 12  7  1  0  0  0  0
 21 20  1  0  0  0  0
M  END
>  <FittedScore>
-33.20

$$$$
