A71EV2A-x3410a_best-RMSD
  FITTED

 37 39     0  0  0  0  0  0  0999 V2000
   11.4453   14.9021   24.4910 O    0  0  0  0  0  0  0  0  0  0  0  0
   11.1094   13.9660   23.7983 C    0  0  0  0  0  0  0  0  0  0  0  0
   10.0456   12.9864   24.2321 C    0  0  0  0  0  0  0  0  0  0  0  0
    9.9381   11.6945   23.6639 C    0  0  0  0  0  0  0  0  0  0  0  0
    9.1498   13.3651   25.2715 C    0  0  0  0  0  0  0  0  0  0  0  0
    8.1544   12.4872   25.7354 C    0  0  0  0  0  0  0  0  0  0  0  0
    8.0947   11.2156   25.1657 C    0  0  0  0  0  0  0  0  0  0  0  0
    8.9752   10.8251   24.1848 C    0  0  0  0  0  0  0  0  0  0  0  0
    8.7109    9.5212   23.9186 N    0  0  0  0  0  0  0  0  0  0  0  0
    9.6123    8.5802   23.2538 C    0  0  0  0  0  0  0  0  0  0  0  0
    7.6977    9.0602   24.7121 N    0  0  0  0  0  0  0  0  0  0  0  0
    7.2696   10.0325   25.4535 C    0  0  0  0  0  0  0  0  0  0  0  0
    6.1385    9.9401   26.4493 C    0  0  0  0  0  0  0  0  0  0  0  0
   11.6336   13.8017   22.5582 N    0  0  0  0  0  0  0  0  0  0  0  0
   12.5959   14.7320   21.9423 C    0  0  0  0  0  0  0  0  0  0  0  0
   12.3473   14.9714   20.4514 C    0  0  0  0  0  0  0  0  0  0  0  0
   11.0091   15.5928   20.1341 C    0  0  0  0  0  0  0  0  0  0  0  0
   10.3834   16.6962   20.8694 N    0  0  0  0  0  0  0  0  0  0  0  0
    9.2322   16.9775   20.0104 C    0  0  0  0  0  0  0  0  0  0  0  0
    9.1576   16.0854   18.9680 O    0  0  0  0  0  0  0  0  0  0  0  0
   10.2486   15.2677   19.0418 C    0  0  0  0  0  0  0  0  0  0  0  0
   10.6124   11.3497   22.8823 H    0  0  0  0  0  0  0  0  0  0  0  0
    9.2048   14.3536   25.7197 H    0  0  0  0  0  0  0  0  0  0  0  0
    7.4761   12.7834   26.5308 H    0  0  0  0  0  0  0  0  0  0  0  0
    9.2085    7.5657   23.2044 H    0  0  0  0  0  0  0  0  0  0  0  0
   10.5720    8.5236   23.7731 H    0  0  0  0  0  0  0  0  0  0  0  0
    9.8243    8.8898   22.2265 H    0  0  0  0  0  0  0  0  0  0  0  0
    6.5068    9.5520   27.3999 H    0  0  0  0  0  0  0  0  0  0  0  0
    5.3595    9.2657   26.0856 H    0  0  0  0  0  0  0  0  0  0  0  0
    5.6780   10.9118   26.6260 H    0  0  0  0  0  0  0  0  0  0  0  0
   11.3052   13.0397   21.9663 H    0  0  0  0  0  0  0  0  0  0  0  0
   13.5972   14.3084   22.0722 H    0  0  0  0  0  0  0  0  0  0  0  0
   12.6199   15.7046   22.4422 H    0  0  0  0  0  0  0  0  0  0  0  0
   12.4748   14.0316   19.9039 H    0  0  0  0  0  0  0  0  0  0  0  0
   13.1238   15.6462   20.0826 H    0  0  0  0  0  0  0  0  0  0  0  0
    8.5444   17.8040   20.1930 H    0  0  0  0  0  0  0  0  0  0  0  0
   10.4838   14.4993   18.3095 H    0  0  0  0  0  0  0  0  0  0  0  0
  3  2  1  0  0  0  0
  4  3  1  0  0  0  0
 22  4  1  0  0  0  0
  1  2  2  0  0  0  0
  5  3  2  0  0  0  0
 23  5  1  0  0  0  0
  6  5  1  0  0  0  0
 24  6  1  0  0  0  0
  7  6  2  0  0  0  0
  8  4  2  0  0  0  0
  9  8  1  0  0  0  0
 10  9  1  0  0  0  0
 25 10  1  0  0  0  0
 26 10  1  0  0  0  0
 27 10  1  0  0  0  0
 11  9  1  0  0  0  0
 12 11  2  0  0  0  0
 13 12  1  0  0  0  0
 28 13  1  0  0  0  0
 29 13  1  0  0  0  0
 30 13  1  0  0  0  0
 14  2  1  0  0  0  0
 31 14  1  0  0  0  0
 15 14  1  0  0  0  0
 32 15  1  0  0  0  0
 33 15  1  0  0  0  0
 16 15  1  0  0  0  0
 34 16  1  0  0  0  0
 35 16  1  0  0  0  0
 17 16  1  0  0  0  0
 21 17  2  0  0  0  0
 18 17  1  0  0  0  0
 19 18  2  0  0  0  0
 36 19  1  0  0  0  0
 20 19  1  0  0  0  0
 37 21  1  0  0  0  0
  8  7  1  0  0  0  0
 12  7  1  0  0  0  0
 21 20  1  0  0  0  0
M  END
>  <FittedScore>
-32.98

$$$$
