A71EV2A-x7545a_lowest-energy
  FITTED

 46 47     0  0  0  0  0  0  0999 V2000
    9.5093    8.6228   23.4618 C    0  0  0  0  0  0  0  0  0  0  0  0
    9.2305   10.4080   23.6384 S    0  0  0  0  0  0  0  0  0  0  0  0
    7.8979   10.5928   24.8065 C    0  0  0  0  0  0  0  0  0  0  0  0
    7.2285    9.4646   25.1744 N    0  0  0  0  0  0  0  0  0  0  0  0
    6.2102    9.5928   26.0533 C    0  0  0  0  0  0  0  0  0  0  0  0
    5.7789   10.7714   26.5580 N    0  0  0  0  0  0  0  0  0  0  0  0
    6.3948   11.9205   26.1792 C    0  0  0  0  0  0  0  0  0  0  0  0
    5.8286   13.0935   26.6571 N    0  0  0  0  0  0  0  0  0  0  0  0
    5.6722   13.3491   28.1033 C    0  0  0  0  0  0  0  0  0  0  0  0
    5.1589   14.0399   25.7396 C    0  0  0  0  0  0  0  0  0  0  0  0
    7.5224   11.8684   25.3165 C    0  0  0  0  0  0  0  0  0  0  0  0
    8.3134   13.1372   24.9527 C    0  0  0  0  0  0  0  0  0  0  0  0
    7.9759   13.7327   23.5777 C    0  0  0  0  0  0  0  0  0  0  0  0
    7.1819   13.1567   22.8455 O    0  0  0  0  0  0  0  0  0  0  0  0
    8.6797   14.8390   23.1516 N    0  0  0  0  0  0  0  0  0  0  0  0
    9.6407   15.6627   23.9662 C    0  0  0  0  0  0  0  0  0  0  0  0
   11.0942   15.5899   23.4261 C    0  0  0  0  0  0  0  0  0  0  0  0
   11.1635   16.0098   21.9365 C    0  0  0  0  0  0  0  0  0  0  0  0
   10.1068   15.2342   21.0943 C    0  0  0  0  0  0  0  0  0  0  0  0
   10.1471   15.7084   19.6495 C    0  0  0  0  0  0  0  0  0  0  0  0
   10.7087   14.8548   18.7694 N    0  0  0  0  0  0  0  0  0  0  0  0
    9.6710   16.7623   19.2709 O    0  0  0  0  0  0  0  0  0  0  0  0
    8.6798   15.3194   21.7311 C    0  0  0  0  0  0  0  0  0  0  0  0
   10.3783    8.4528   22.8213 H    0  0  0  0  0  0  0  0  0  0  0  0
    8.6385    8.1388   23.0131 H    0  0  0  0  0  0  0  0  0  0  0  0
    9.7074    8.1883   24.4443 H    0  0  0  0  0  0  0  0  0  0  0  0
    5.6860    8.6942   26.3633 H    0  0  0  0  0  0  0  0  0  0  0  0
    6.4816   12.8952   28.6819 H    0  0  0  0  0  0  0  0  0  0  0  0
    4.7296   12.9428   28.4837 H    0  0  0  0  0  0  0  0  0  0  0  0
    5.6788   14.4178   28.3402 H    0  0  0  0  0  0  0  0  0  0  0  0
    5.7471   14.9503   25.6034 H    0  0  0  0  0  0  0  0  0  0  0  0
    4.1685   14.3339   26.1000 H    0  0  0  0  0  0  0  0  0  0  0  0
    4.9991   13.6083   24.7464 H    0  0  0  0  0  0  0  0  0  0  0  0
    9.3851   12.9173   24.9995 H    0  0  0  0  0  0  0  0  0  0  0  0
    8.1593   13.8859   25.7359 H    0  0  0  0  0  0  0  0  0  0  0  0
    9.6731   15.3926   25.0203 H    0  0  0  0  0  0  0  0  0  0  0  0
    9.3030   16.7052   23.9643 H    0  0  0  0  0  0  0  0  0  0  0  0
   11.4737   14.5689   23.5421 H    0  0  0  0  0  0  0  0  0  0  0  0
   11.7406   16.2418   24.0185 H    0  0  0  0  0  0  0  0  0  0  0  0
   12.1659   15.8047   21.5510 H    0  0  0  0  0  0  0  0  0  0  0  0
   11.0003   17.0902   21.8498 H    0  0  0  0  0  0  0  0  0  0  0  0
   10.3858   14.1737   21.1233 H    0  0  0  0  0  0  0  0  0  0  0  0
   10.9350   13.9060   19.0605 H    0  0  0  0  0  0  0  0  0  0  0  0
   10.7300   15.0929   17.7858 H    0  0  0  0  0  0  0  0  0  0  0  0
    7.9918   14.7550   21.0964 H    0  0  0  0  0  0  0  0  0  0  0  0
    8.3133   16.3508   21.7002 H    0  0  0  0  0  0  0  0  0  0  0  0
 12 13  1  0  0  0  0
 11 12  1  0  0  0  0
  7 11  2  0  0  0  0
  6  7  1  0  0  0  0
  5  6  2  0  0  0  0
  4  5  1  0  0  0  0
  3  4  2  0  0  0  0
  2  3  1  0  0  0  0
  1  2  1  0  0  0  0
 24  1  1  0  0  0  0
 25  1  1  0  0  0  0
 26  1  1  0  0  0  0
 27  5  1  0  0  0  0
  8  7  1  0  0  0  0
  9  8  1  0  0  0  0
 10  8  1  0  0  0  0
 28  9  1  0  0  0  0
 29  9  1  0  0  0  0
 30  9  1  0  0  0  0
 31 10  1  0  0  0  0
 32 10  1  0  0  0  0
 33 10  1  0  0  0  0
 34 12  1  0  0  0  0
 35 12  1  0  0  0  0
 14 13  2  0  0  0  0
 15 13  1  0  0  0  0
 16 15  1  0  0  0  0
 17 16  1  0  0  0  0
 36 16  1  0  0  0  0
 37 16  1  0  0  0  0
 18 17  1  0  0  0  0
 38 17  1  0  0  0  0
 39 17  1  0  0  0  0
 19 18  1  0  0  0  0
 40 18  1  0  0  0  0
 41 18  1  0  0  0  0
 20 19  1  0  0  0  0
 23 19  1  0  0  0  0
 42 19  1  0  0  0  0
 21 20  1  0  0  0  0
 22 20  2  0  0  0  0
 43 21  1  0  0  0  0
 44 21  1  0  0  0  0
 45 23  1  0  0  0  0
 46 23  1  0  0  0  0
 11  3  1  0  0  0  0
 23 15  1  0  0  0  0
M  END
>  <FittedScore>
-36.49

$$$$
