A71EV2A-x5777b_lowest-energy
  FITTED

 42 44     0  0  0  0  0  0  0999 V2000
   12.6652   16.5297   21.5962 C    0  0  0  0  0  0  0  0  0  0  0  0
   11.2500   16.3860   22.1919 C    0  0  0  0  0  0  0  0  0  0  0  0
   11.3054   15.8346   23.6485 C    0  0  0  0  0  0  0  0  0  0  0  0
    9.9358   15.5096   24.2559 C    0  0  0  0  0  0  0  0  0  0  0  0
    9.8567   15.2230   25.4360 O    0  0  0  0  0  0  0  0  0  0  0  0
    8.8345   15.4296   23.4348 N    0  0  0  0  0  0  0  0  0  0  0  0
    7.4617   15.1635   23.9562 C    0  0  0  0  0  0  0  0  0  0  0  0
    7.2473   13.7274   24.4494 C    0  0  0  0  0  0  0  0  0  0  0  0
    6.2191   13.4879   25.3985 C    0  0  0  0  0  0  0  0  0  0  0  0
    5.9379   12.1898   25.8554 C    0  0  0  0  0  0  0  0  0  0  0  0
    6.7042   11.1489   25.3414 C    0  0  0  0  0  0  0  0  0  0  0  0
    6.6311    9.6987   25.5323 C    0  0  0  0  0  0  0  0  0  0  0  0
    7.5468    9.1644   24.7951 N    0  0  0  0  0  0  0  0  0  0  0  0
    8.2345   10.1464   24.1382 N    0  0  0  0  0  0  0  0  0  0  0  0
    9.4543    9.8418   23.3836 C    0  0  0  0  0  0  0  0  0  0  0  0
    7.7145   11.3645   24.4354 C    0  0  0  0  0  0  0  0  0  0  0  0
    8.0125   12.6391   23.9575 C    0  0  0  0  0  0  0  0  0  0  0  0
    8.8860   15.5320   21.9510 C    0  0  0  0  0  0  0  0  0  0  0  0
   10.3167   15.4779   21.3456 C    0  0  0  0  0  0  0  0  0  0  0  0
   10.2867   15.8335   19.8527 C    0  0  0  0  0  0  0  0  0  0  0  0
   10.6228   14.8430   19.0055 N    0  0  0  0  0  0  0  0  0  0  0  0
    9.8929   16.9007   19.4161 O    0  0  0  0  0  0  0  0  0  0  0  0
   13.1008   15.5559   21.3435 H    0  0  0  0  0  0  0  0  0  0  0  0
   13.3450   17.0284   22.2992 H    0  0  0  0  0  0  0  0  0  0  0  0
   12.6507   17.1382   20.6877 H    0  0  0  0  0  0  0  0  0  0  0  0
   10.8208   17.3910   22.2339 H    0  0  0  0  0  0  0  0  0  0  0  0
   11.8031   16.5750   24.2916 H    0  0  0  0  0  0  0  0  0  0  0  0
   11.9174   14.9253   23.6834 H    0  0  0  0  0  0  0  0  0  0  0  0
    6.6958   15.3921   23.2114 H    0  0  0  0  0  0  0  0  0  0  0  0
    7.2692   15.8605   24.7753 H    0  0  0  0  0  0  0  0  0  0  0  0
    5.6207   14.3130   25.7750 H    0  0  0  0  0  0  0  0  0  0  0  0
    5.1427   11.9985   26.5686 H    0  0  0  0  0  0  0  0  0  0  0  0
    5.9566    9.1269   26.1651 H    0  0  0  0  0  0  0  0  0  0  0  0
   10.3354   10.2559   23.8758 H    0  0  0  0  0  0  0  0  0  0  0  0
    9.4094   10.2673   22.3804 H    0  0  0  0  0  0  0  0  0  0  0  0
    9.6324    8.7695   23.2596 H    0  0  0  0  0  0  0  0  0  0  0  0
    8.7989   12.7645   23.2187 H    0  0  0  0  0  0  0  0  0  0  0  0
    8.3989   16.4739   21.6789 H    0  0  0  0  0  0  0  0  0  0  0  0
    8.2961   14.7265   21.4984 H    0  0  0  0  0  0  0  0  0  0  0  0
   10.6617   14.4416   21.4571 H    0  0  0  0  0  0  0  0  0  0  0  0
   10.6232   15.0151   18.0054 H    0  0  0  0  0  0  0  0  0  0  0  0
   10.8139   13.9099   19.3594 H    0  0  0  0  0  0  0  0  0  0  0  0
  4  6  1  0  0  0  0
  3  4  1  0  0  0  0
  2  3  1  0  0  0  0
  1  2  1  0  0  0  0
 23  1  1  0  0  0  0
 24  1  1  0  0  0  0
 25  1  1  0  0  0  0
 26  2  1  0  0  0  0
 27  3  1  0  0  0  0
 28  3  1  0  0  0  0
  5  4  2  0  0  0  0
  7  6  1  0  0  0  0
 18  6  1  0  0  0  0
  8  7  1  0  0  0  0
 29  7  1  0  0  0  0
 30  7  1  0  0  0  0
  9  8  2  0  0  0  0
 10  9  1  0  0  0  0
 31  9  1  0  0  0  0
 11 10  2  0  0  0  0
 32 10  1  0  0  0  0
 12 11  1  0  0  0  0
 13 12  2  0  0  0  0
 33 12  1  0  0  0  0
 14 13  1  0  0  0  0
 15 14  1  0  0  0  0
 16 14  1  0  0  0  0
 34 15  1  0  0  0  0
 35 15  1  0  0  0  0
 36 15  1  0  0  0  0
 17 16  2  0  0  0  0
 37 17  1  0  0  0  0
 19 18  1  0  0  0  0
 38 18  1  0  0  0  0
 39 18  1  0  0  0  0
 20 19  1  0  0  0  0
 40 19  1  0  0  0  0
 21 20  1  0  0  0  0
 22 20  2  0  0  0  0
 41 21  1  0  0  0  0
 42 21  1  0  0  0  0
 16 11  1  0  0  0  0
 17  8  1  0  0  0  0
 19  2  1  0  0  0  0
M  END
>  <FittedScore>
-35.26

$$$$
