A71EV2A-x3939a_lowest-energy
  FITTED

 43 44     0  0  0  0  0  0  0999 V2000
    9.6675   16.6329   19.0316 O    0  0  0  0  0  0  0  0  0  0  0  0
   10.1792   15.6119   19.4566 C    0  0  0  0  0  0  0  0  0  0  0  0
   10.7509   14.7163   18.6332 N    0  0  0  0  0  0  0  0  0  0  0  0
   10.1404   15.1821   20.9094 C    0  0  0  0  0  0  0  0  0  0  0  0
   11.1249   16.0445   21.7480 C    0  0  0  0  0  0  0  0  0  0  0  0
   11.0409   15.6761   23.2461 C    0  0  0  0  0  0  0  0  0  0  0  0
    9.5683   15.6073   23.7406 C    0  0  0  0  0  0  0  0  0  0  0  0
    8.6918   15.1719   21.4867 C    0  0  0  0  0  0  0  0  0  0  0  0
    8.6960   14.7081   22.9055 N    0  0  0  0  0  0  0  0  0  0  0  0
    8.1033   13.5288   23.3079 C    0  0  0  0  0  0  0  0  0  0  0  0
    7.2103   13.0130   22.6522 O    0  0  0  0  0  0  0  0  0  0  0  0
    8.7634   12.7525   24.4638 C    0  0  0  0  0  0  0  0  0  0  0  0
   10.1430   12.4633   24.0734 O    0  0  0  0  0  0  0  0  0  0  0  0
   11.1382   12.3002   25.1109 C    0  0  0  0  0  0  0  0  0  0  0  0
    7.9171   11.5507   24.9439 C    0  0  0  0  0  0  0  0  0  0  0  0
    8.0689   10.1998   24.5172 C    0  0  0  0  0  0  0  0  0  0  0  0
    9.1353    9.7087   23.5313 C    0  0  0  0  0  0  0  0  0  0  0  0
    7.1809    9.2320   25.0172 C    0  0  0  0  0  0  0  0  0  0  0  0
    6.1739    9.5665   25.9279 C    0  0  0  0  0  0  0  0  0  0  0  0
    6.0075   10.8876   26.3326 C    0  0  0  0  0  0  0  0  0  0  0  0
    6.8634   11.8707   25.8317 C    0  0  0  0  0  0  0  0  0  0  0  0
   10.7855   14.8982   17.6436 H    0  0  0  0  0  0  0  0  0  0  0  0
   10.9801   13.7816   18.9770 H    0  0  0  0  0  0  0  0  0  0  0  0
   10.4931   14.1426   20.9919 H    0  0  0  0  0  0  0  0  0  0  0  0
   12.1489   15.8891   21.3940 H    0  0  0  0  0  0  0  0  0  0  0  0
   10.9025   17.1071   21.6289 H    0  0  0  0  0  0  0  0  0  0  0  0
   11.5470   14.7230   23.4176 H    0  0  0  0  0  0  0  0  0  0  0  0
   11.5807   16.4248   23.8344 H    0  0  0  0  0  0  0  0  0  0  0  0
    9.5735   15.3554   24.7981 H    0  0  0  0  0  0  0  0  0  0  0  0
    9.1495   16.6182   23.7175 H    0  0  0  0  0  0  0  0  0  0  0  0
    8.0690   14.5403   20.8425 H    0  0  0  0  0  0  0  0  0  0  0  0
    8.2467   16.1692   21.4391 H    0  0  0  0  0  0  0  0  0  0  0  0
    8.8149   13.4077   25.3370 H    0  0  0  0  0  0  0  0  0  0  0  0
   12.1060   12.0907   24.6484 H    0  0  0  0  0  0  0  0  0  0  0  0
   10.8664   11.4565   25.7505 H    0  0  0  0  0  0  0  0  0  0  0  0
   11.2193   13.2033   25.7217 H    0  0  0  0  0  0  0  0  0  0  0  0
   10.1131    9.6546   24.0125 H    0  0  0  0  0  0  0  0  0  0  0  0
    9.2095   10.3750   22.6693 H    0  0  0  0  0  0  0  0  0  0  0  0
    8.9163    8.7171   23.1293 H    0  0  0  0  0  0  0  0  0  0  0  0
    7.2680    8.1923   24.7083 H    0  0  0  0  0  0  0  0  0  0  0  0
    5.5128    8.7922   26.3083 H    0  0  0  0  0  0  0  0  0  0  0  0
    5.2106   11.1457   27.0263 H    0  0  0  0  0  0  0  0  0  0  0  0
    6.6933   12.8976   26.1469 H    0  0  0  0  0  0  0  0  0  0  0  0
  9 10  1  0  0  0  0
  7  9  1  0  0  0  0
  6  7  1  0  0  0  0
  5  6  1  0  0  0  0
  4  5  1  0  0  0  0
  2  4  1  0  0  0  0
  1  2  2  0  0  0  0
  3  2  1  0  0  0  0
 22  3  1  0  0  0  0
 23  3  1  0  0  0  0
 24  4  1  0  0  0  0
 25  5  1  0  0  0  0
 26  5  1  0  0  0  0
 27  6  1  0  0  0  0
 28  6  1  0  0  0  0
 29  7  1  0  0  0  0
 30  7  1  0  0  0  0
  8  4  1  0  0  0  0
 31  8  1  0  0  0  0
 32  8  1  0  0  0  0
 11 10  2  0  0  0  0
 12 10  1  0  0  0  0
 13 12  1  0  0  0  0
 33 12  1  0  0  0  0
 14 13  1  0  0  0  0
 34 14  1  0  0  0  0
 35 14  1  0  0  0  0
 36 14  1  0  0  0  0
 15 12  1  0  0  0  0
 21 15  2  0  0  0  0
 16 15  1  0  0  0  0
 17 16  1  0  0  0  0
 37 17  1  0  0  0  0
 38 17  1  0  0  0  0
 39 17  1  0  0  0  0
 18 16  2  0  0  0  0
 40 18  1  0  0  0  0
 19 18  1  0  0  0  0
 41 19  1  0  0  0  0
 20 19  2  0  0  0  0
 42 20  1  0  0  0  0
 43 21  1  0  0  0  0
  9  8  1  0  0  0  0
 21 20  1  0  0  0  0
M  END
>  <FittedScore>
-30.61

$$$$
