A71EV2A-x3939a_best-RMSD
  FITTED

 43 44     0  0  0  0  0  0  0999 V2000
    9.7995   16.6530   18.9766 O    0  0  0  0  0  0  0  0  0  0  0  0
   10.2720   15.6308   19.4358 C    0  0  0  0  0  0  0  0  0  0  0  0
   10.8230   14.7144   18.6290 N    0  0  0  0  0  0  0  0  0  0  0  0
   10.1702   15.2265   20.8961 C    0  0  0  0  0  0  0  0  0  0  0  0
   11.0430   16.1741   21.7704 C    0  0  0  0  0  0  0  0  0  0  0  0
   10.8525   15.8826   23.2717 C    0  0  0  0  0  0  0  0  0  0  0  0
    9.3514   15.7663   23.6525 C    0  0  0  0  0  0  0  0  0  0  0  0
    8.6804   15.1629   21.3657 C    0  0  0  0  0  0  0  0  0  0  0  0
    8.5657   14.8097   22.8095 N    0  0  0  0  0  0  0  0  0  0  0  0
    7.9580   13.6586   23.2514 C    0  0  0  0  0  0  0  0  0  0  0  0
    7.0569   13.1324   22.6106 O    0  0  0  0  0  0  0  0  0  0  0  0
    8.6288   12.9308   24.4296 C    0  0  0  0  0  0  0  0  0  0  0  0
   10.0433   12.7568   24.0946 O    0  0  0  0  0  0  0  0  0  0  0  0
   11.0147   12.6482   25.1629 C    0  0  0  0  0  0  0  0  0  0  0  0
    7.9554   11.5937   24.7740 C    0  0  0  0  0  0  0  0  0  0  0  0
    6.8397   11.5148   25.6559 C    0  0  0  0  0  0  0  0  0  0  0  0
    6.2146   12.7380   26.3326 C    0  0  0  0  0  0  0  0  0  0  0  0
    6.2514   10.2641   25.8986 C    0  0  0  0  0  0  0  0  0  0  0  0
    6.7349    9.1261   25.2567 C    0  0  0  0  0  0  0  0  0  0  0  0
    7.8220    9.1941   24.3862 C    0  0  0  0  0  0  0  0  0  0  0  0
    8.4249   10.4217   24.1407 C    0  0  0  0  0  0  0  0  0  0  0  0
   11.0208   13.7754   18.9733 H    0  0  0  0  0  0  0  0  0  0  0  0
   10.8841   14.9052   17.6390 H    0  0  0  0  0  0  0  0  0  0  0  0
   10.5818   14.2181   21.0320 H    0  0  0  0  0  0  0  0  0  0  0  0
   12.0991   16.0516   21.5108 H    0  0  0  0  0  0  0  0  0  0  0  0
   10.7870   17.2214   21.5753 H    0  0  0  0  0  0  0  0  0  0  0  0
   11.3961   14.9738   23.5243 H    0  0  0  0  0  0  0  0  0  0  0  0
   11.3107   16.6839   23.8562 H    0  0  0  0  0  0  0  0  0  0  0  0
    9.2764   15.5640   24.7178 H    0  0  0  0  0  0  0  0  0  0  0  0
    8.8924   16.7541   23.5495 H    0  0  0  0  0  0  0  0  0  0  0  0
    8.1529   14.4463   20.7297 H    0  0  0  0  0  0  0  0  0  0  0  0
    8.1855   16.1258   21.2011 H    0  0  0  0  0  0  0  0  0  0  0  0
    8.5741   13.5632   25.3195 H    0  0  0  0  0  0  0  0  0  0  0  0
   10.7935   11.7793   25.7870 H    0  0  0  0  0  0  0  0  0  0  0  0
   11.0100   13.5467   25.7848 H    0  0  0  0  0  0  0  0  0  0  0  0
   12.0083   12.5219   24.7317 H    0  0  0  0  0  0  0  0  0  0  0  0
    5.9880   13.5143   25.5991 H    0  0  0  0  0  0  0  0  0  0  0  0
    6.8968   13.1481   27.0819 H    0  0  0  0  0  0  0  0  0  0  0  0
    5.2792   12.4998   26.8423 H    0  0  0  0  0  0  0  0  0  0  0  0
    5.3983   10.1624   26.5648 H    0  0  0  0  0  0  0  0  0  0  0  0
    6.2576    8.1645   25.4375 H    0  0  0  0  0  0  0  0  0  0  0  0
    8.1870    8.2996   23.8891 H    0  0  0  0  0  0  0  0  0  0  0  0
    9.2522   10.4497   23.4344 H    0  0  0  0  0  0  0  0  0  0  0  0
  9 10  1  0  0  0  0
  7  9  1  0  0  0  0
  6  7  1  0  0  0  0
  5  6  1  0  0  0  0
  4  5  1  0  0  0  0
  2  4  1  0  0  0  0
  1  2  2  0  0  0  0
  3  2  1  0  0  0  0
 22  3  1  0  0  0  0
 23  3  1  0  0  0  0
 24  4  1  0  0  0  0
 25  5  1  0  0  0  0
 26  5  1  0  0  0  0
 27  6  1  0  0  0  0
 28  6  1  0  0  0  0
 29  7  1  0  0  0  0
 30  7  1  0  0  0  0
  8  4  1  0  0  0  0
 31  8  1  0  0  0  0
 32  8  1  0  0  0  0
 11 10  2  0  0  0  0
 12 10  1  0  0  0  0
 13 12  1  0  0  0  0
 33 12  1  0  0  0  0
 14 13  1  0  0  0  0
 34 14  1  0  0  0  0
 35 14  1  0  0  0  0
 36 14  1  0  0  0  0
 15 12  1  0  0  0  0
 21 15  2  0  0  0  0
 16 15  1  0  0  0  0
 17 16  1  0  0  0  0
 37 17  1  0  0  0  0
 38 17  1  0  0  0  0
 39 17  1  0  0  0  0
 18 16  2  0  0  0  0
 40 18  1  0  0  0  0
 19 18  1  0  0  0  0
 41 19  1  0  0  0  0
 20 19  2  0  0  0  0
 42 20  1  0  0  0  0
 43 21  1  0  0  0  0
  9  8  1  0  0  0  0
 21 20  1  0  0  0  0
M  END
>  <FittedScore>
-31.09

$$$$
