A71EV2A-x7576b_lowest-energy
  FITTED

 48 51     0  0  0  0  0  0  0999 V2000
    9.5717    9.1247   23.2676 C    0  0  0  0  0  0  0  0  0  0  0  0
    9.2630   10.8494   23.7405 S    0  0  0  0  0  0  0  0  0  0  0  0
    7.7367   10.9023   24.6899 C    0  0  0  0  0  0  0  0  0  0  0  0
    7.1487    9.6993   25.1120 C    0  0  0  0  0  0  0  0  0  0  0  0
    5.9542    9.6783   25.8143 C    0  0  0  0  0  0  0  0  0  0  0  0
    5.2333   10.8598   26.0668 C    0  0  0  0  0  0  0  0  0  0  0  0
    3.9696   10.7950   26.6920 C    0  0  0  0  0  0  0  0  0  0  0  0
    3.1287   11.8733   26.9553 C    0  0  0  0  0  0  0  0  0  0  0  0
    2.0287   11.3797   27.6060 C    0  0  0  0  0  0  0  0  0  0  0  0
    2.1864   10.0377   27.7196 N    0  0  0  0  0  0  0  0  0  0  0  0
    3.3338    9.5362   27.1805 N    0  0  0  0  0  0  0  0  0  0  0  0
    5.8325   12.0803   25.6853 C    0  0  0  0  0  0  0  0  0  0  0  0
    7.0912   12.1178   25.0384 C    0  0  0  0  0  0  0  0  0  0  0  0
    7.7340   13.4821   24.7904 C    0  0  0  0  0  0  0  0  0  0  0  0
    8.0049   13.8184   23.3051 C    0  0  0  0  0  0  0  0  0  0  0  0
    7.3334   13.2598   22.4489 O    0  0  0  0  0  0  0  0  0  0  0  0
    9.0246   14.7078   22.9888 N    0  0  0  0  0  0  0  0  0  0  0  0
    9.6960   15.5795   24.0028 C    0  0  0  0  0  0  0  0  0  0  0  0
   11.2513   15.5121   24.0336 C    0  0  0  0  0  0  0  0  0  0  0  0
   11.8273   14.2177   24.6430 C    0  0  0  0  0  0  0  0  0  0  0  0
   12.5797   14.3448   25.7493 N    0  0  0  0  0  0  0  0  0  0  0  0
   11.5545   13.1153   24.2290 O    0  0  0  0  0  0  0  0  0  0  0  0
   11.8377   15.8107   22.6309 C    0  0  0  0  0  0  0  0  0  0  0  0
   11.1153   14.9605   21.5805 C    0  0  0  0  0  0  0  0  0  0  0  0
   10.2196   15.6889   20.6242 C    0  0  0  0  0  0  0  0  0  0  0  0
    9.6329   14.6910   21.5908 C    0  0  0  0  0  0  0  0  0  0  0  0
   10.4362    9.0716   22.6023 H    0  0  0  0  0  0  0  0  0  0  0  0
    8.7095    8.6967   22.7395 H    0  0  0  0  0  0  0  0  0  0  0  0
    9.7905    8.5717   24.1736 H    0  0  0  0  0  0  0  0  0  0  0  0
    7.5987    8.7356   24.9250 H    0  0  0  0  0  0  0  0  0  0  0  0
    5.6053    8.7092   26.1434 H    0  0  0  0  0  0  0  0  0  0  0  0
    3.2722   12.9176   26.6809 H    0  0  0  0  0  0  0  0  0  0  0  0
    1.1745   11.9468   27.9551 H    0  0  0  0  0  0  0  0  0  0  0  0
    1.5587    9.4820   28.2879 H    0  0  0  0  0  0  0  0  0  0  0  0
    5.3342   13.0162   25.9193 H    0  0  0  0  0  0  0  0  0  0  0  0
    8.6539   13.4726   25.3881 H    0  0  0  0  0  0  0  0  0  0  0  0
    7.1409   14.2996   25.2159 H    0  0  0  0  0  0  0  0  0  0  0  0
    9.3277   15.4461   25.0090 H    0  0  0  0  0  0  0  0  0  0  0  0
    9.3914   16.5992   23.7713 H    0  0  0  0  0  0  0  0  0  0  0  0
   11.5521   16.3480   24.6713 H    0  0  0  0  0  0  0  0  0  0  0  0
   12.7111   15.2542   26.1770 H    0  0  0  0  0  0  0  0  0  0  0  0
   12.9893   13.5256   26.1804 H    0  0  0  0  0  0  0  0  0  0  0  0
   12.9107   15.6088   22.6140 H    0  0  0  0  0  0  0  0  0  0  0  0
   11.7316   16.8785   22.4283 H    0  0  0  0  0  0  0  0  0  0  0  0
   11.6883   14.0917   21.2724 H    0  0  0  0  0  0  0  0  0  0  0  0
   10.3387   15.3849   19.5888 H    0  0  0  0  0  0  0  0  0  0  0  0
   10.0463   16.7493   20.7572 H    0  0  0  0  0  0  0  0  0  0  0  0
    9.2831   13.7466   21.1943 H    0  0  0  0  0  0  0  0  0  0  0  0
 14 15  1  0  0  0  0
 13 14  1  0  0  0  0
 12 13  2  0  0  0  0
  6 12  1  0  0  0  0
  5  6  2  0  0  0  0
  4  5  1  0  0  0  0
  3  4  2  0  0  0  0
  2  3  1  0  0  0  0
  1  2  1  0  0  0  0
 27  1  1  0  0  0  0
 28  1  1  0  0  0  0
 29  1  1  0  0  0  0
 30  4  1  0  0  0  0
 31  5  1  0  0  0  0
  7  6  1  0  0  0  0
  8  7  1  0  0  0  0
  9  8  2  0  0  0  0
 32  8  1  0  0  0  0
 10  9  1  0  0  0  0
 33  9  1  0  0  0  0
 11 10  1  0  0  0  0
 34 10  1  0  0  0  0
 35 12  1  0  0  0  0
 36 14  1  0  0  0  0
 37 14  1  0  0  0  0
 16 15  2  0  0  0  0
 17 15  1  0  0  0  0
 18 17  1  0  0  0  0
 19 18  1  0  0  0  0
 38 18  1  0  0  0  0
 39 18  1  0  0  0  0
 20 19  1  0  0  0  0
 23 19  1  0  0  0  0
 40 19  1  0  0  0  0
 21 20  1  0  0  0  0
 22 20  2  0  0  0  0
 41 21  1  0  0  0  0
 42 21  1  0  0  0  0
 43 23  1  0  0  0  0
 44 23  1  0  0  0  0
 24 23  1  0  0  0  0
 25 24  1  0  0  0  0
 45 24  1  0  0  0  0
 46 25  1  0  0  0  0
 47 25  1  0  0  0  0
 26 25  1  0  0  0  0
 48 26  1  0  0  0  0
 11  7  2  0  0  0  0
 13  3  1  0  0  0  0
 26 17  1  0  0  0  0
 26 24  1  0  0  0  0
M  END
>  <FittedScore>
-24.84

$$$$
