A71EV2A-x7301b_lowest-energy
  FITTED

 49 51     0  0  0  0  0  0  0999 V2000
    9.4147    8.8829   23.3524 C    0  0  0  0  0  0  0  0  0  0  0  0
    9.4140   10.5972   23.9693 S    0  0  0  0  0  0  0  0  0  0  0  0
    7.9769   10.8160   25.0250 C    0  0  0  0  0  0  0  0  0  0  0  0
    7.2627    9.7217   25.5345 C    0  0  0  0  0  0  0  0  0  0  0  0
    6.1885    9.9047   26.4108 C    0  0  0  0  0  0  0  0  0  0  0  0
    5.7775   11.1997   26.8073 C    0  0  0  0  0  0  0  0  0  0  0  0
    4.6948   11.3998   27.8283 C    0  0  0  0  0  0  0  0  0  0  0  0
    4.8454   10.8067   29.1091 C    0  0  0  0  0  0  0  0  0  0  0  0
    3.9000   11.0387   30.1125 C    0  0  0  0  0  0  0  0  0  0  0  0
    2.8099   11.8756   29.8390 C    0  0  0  0  0  0  0  0  0  0  0  0
    2.6180   12.4367   28.6145 N    0  0  0  0  0  0  0  0  0  0  0  0
    3.5198   12.1919   27.6169 C    0  0  0  0  0  0  0  0  0  0  0  0
    3.2025   12.7207   26.3884 N    0  0  0  0  0  0  0  0  0  0  0  0
    6.4933   12.3005   26.2824 C    0  0  0  0  0  0  0  0  0  0  0  0
    7.5617   12.1185   25.3955 C    0  0  0  0  0  0  0  0  0  0  0  0
    8.1874   13.2540   24.9033 O    0  0  0  0  0  0  0  0  0  0  0  0
    8.1148   13.6535   23.5986 C    0  0  0  0  0  0  0  0  0  0  0  0
    7.3324   13.1253   22.8278 O    0  0  0  0  0  0  0  0  0  0  0  0
    9.0147   14.6003   23.1764 N    0  0  0  0  0  0  0  0  0  0  0  0
    9.9861   15.3221   24.0698 C    0  0  0  0  0  0  0  0  0  0  0  0
   11.4260   15.4611   23.4920 C    0  0  0  0  0  0  0  0  0  0  0  0
   11.4349   15.9913   22.0368 C    0  0  0  0  0  0  0  0  0  0  0  0
   10.4644   15.1664   21.1481 C    0  0  0  0  0  0  0  0  0  0  0  0
   10.4303   15.6970   19.7184 C    0  0  0  0  0  0  0  0  0  0  0  0
   10.8002   14.8131   18.7730 N    0  0  0  0  0  0  0  0  0  0  0  0
    9.9622   16.7785   19.4085 O    0  0  0  0  0  0  0  0  0  0  0  0
    9.0396   15.1218   21.7725 C    0  0  0  0  0  0  0  0  0  0  0  0
    9.5869    8.1866   24.1748 H    0  0  0  0  0  0  0  0  0  0  0  0
   10.2173    8.7567   22.6216 H    0  0  0  0  0  0  0  0  0  0  0  0
    8.4617    8.6552   22.8691 H    0  0  0  0  0  0  0  0  0  0  0  0
    7.5391    8.7027   25.2845 H    0  0  0  0  0  0  0  0  0  0  0  0
    5.6793    9.0242   26.7938 H    0  0  0  0  0  0  0  0  0  0  0  0
    5.7081   10.1798   29.3371 H    0  0  0  0  0  0  0  0  0  0  0  0
    4.0157   10.5785   31.0933 H    0  0  0  0  0  0  0  0  0  0  0  0
    2.0829   12.0556   30.6264 H    0  0  0  0  0  0  0  0  0  0  0  0
    3.7966   12.5100   25.5809 H    0  0  0  0  0  0  0  0  0  0  0  0
    2.3494   13.2776   26.2850 H    0  0  0  0  0  0  0  0  0  0  0  0
    6.2255   13.3138   26.5743 H    0  0  0  0  0  0  0  0  0  0  0  0
   10.0855   14.8381   25.0451 H    0  0  0  0  0  0  0  0  0  0  0  0
    9.5921   16.3183   24.2819 H    0  0  0  0  0  0  0  0  0  0  0  0
   11.9258   14.4881   23.5184 H    0  0  0  0  0  0  0  0  0  0  0  0
   12.0054   16.1374   24.1211 H    0  0  0  0  0  0  0  0  0  0  0  0
   12.4481   15.9101   21.6369 H    0  0  0  0  0  0  0  0  0  0  0  0
   11.1661   17.0514   22.0191 H    0  0  0  0  0  0  0  0  0  0  0  0
   10.8342   14.1292   21.1459 H    0  0  0  0  0  0  0  0  0  0  0  0
   10.7419   15.0738   17.8007 H    0  0  0  0  0  0  0  0  0  0  0  0
   11.0081   13.8485   19.0297 H    0  0  0  0  0  0  0  0  0  0  0  0
    8.4175   14.5265   21.1004 H    0  0  0  0  0  0  0  0  0  0  0  0
    8.5874   16.1216   21.7723 H    0  0  0  0  0  0  0  0  0  0  0  0
 15 16  1  0  0  0  0
 14 15  2  0  0  0  0
  6 14  1  0  0  0  0
  5  6  2  0  0  0  0
  4  5  1  0  0  0  0
  3  4  2  0  0  0  0
  2  3  1  0  0  0  0
  1  2  1  0  0  0  0
 28  1  1  0  0  0  0
 29  1  1  0  0  0  0
 30  1  1  0  0  0  0
 31  4  1  0  0  0  0
 32  5  1  0  0  0  0
  7  6  1  0  0  0  0
  8  7  2  0  0  0  0
  9  8  1  0  0  0  0
 33  8  1  0  0  0  0
 10  9  2  0  0  0  0
 34  9  1  0  0  0  0
 11 10  1  0  0  0  0
 35 10  1  0  0  0  0
 12 11  2  0  0  0  0
 13 12  1  0  0  0  0
 36 13  1  0  0  0  0
 37 13  1  0  0  0  0
 38 14  1  0  0  0  0
 17 16  1  0  0  0  0
 18 17  2  0  0  0  0
 19 17  1  0  0  0  0
 20 19  1  0  0  0  0
 21 20  1  0  0  0  0
 39 20  1  0  0  0  0
 40 20  1  0  0  0  0
 22 21  1  0  0  0  0
 41 21  1  0  0  0  0
 42 21  1  0  0  0  0
 23 22  1  0  0  0  0
 43 22  1  0  0  0  0
 44 22  1  0  0  0  0
 24 23  1  0  0  0  0
 27 23  1  0  0  0  0
 45 23  1  0  0  0  0
 25 24  1  0  0  0  0
 26 24  2  0  0  0  0
 46 25  1  0  0  0  0
 47 25  1  0  0  0  0
 48 27  1  0  0  0  0
 49 27  1  0  0  0  0
 12  7  1  0  0  0  0
 15  3  1  0  0  0  0
 27 19  1  0  0  0  0
M  END
>  <FittedScore>
-39.18

$$$$
