A71EV2A-x4838a_lowest-energy
  FITTED

 36 37     0  0  0  0  0  0  0999 V2000
    9.3771   10.8367   23.5599 CL   0  0  0  0  0  0  0  0  0  0  0  0
    8.0249   11.0713   24.6273 C    0  0  0  0  0  0  0  0  0  0  0  0
    7.5741    9.9661   25.3638 C    0  0  0  0  0  0  0  0  0  0  0  0
    6.5072   10.0950   26.2658 C    0  0  0  0  0  0  0  0  0  0  0  0
    5.8725   11.3428   26.4497 C    0  0  0  0  0  0  0  0  0  0  0  0
    4.7382   11.5577   27.4606 C    0  0  0  0  0  0  0  0  0  0  0  0
    3.7481   12.3433   26.9829 F    0  0  0  0  0  0  0  0  0  0  0  0
    5.2452   12.1891   28.5293 F    0  0  0  0  0  0  0  0  0  0  0  0
    4.1577   10.4190   27.8790 F    0  0  0  0  0  0  0  0  0  0  0  0
    6.3348   12.4464   25.7125 C    0  0  0  0  0  0  0  0  0  0  0  0
    7.3753   12.3196   24.7783 C    0  0  0  0  0  0  0  0  0  0  0  0
    7.7578   13.5298   23.9308 C    0  0  0  0  0  0  0  0  0  0  0  0
    9.1601   14.0765   24.2380 C    0  0  0  0  0  0  0  0  0  0  0  0
    9.6007   13.9921   25.3696 O    0  0  0  0  0  0  0  0  0  0  0  0
    9.8938   14.6378   23.2282 N    0  0  0  0  0  0  0  0  0  0  0  0
   11.1990   15.3147   23.3905 C    0  0  0  0  0  0  0  0  0  0  0  0
   11.5793   15.9237   22.0287 C    0  0  0  0  0  0  0  0  0  0  0  0
    9.5520   14.6409   21.7976 C    0  0  0  0  0  0  0  0  0  0  0  0
   10.8377   15.0142   21.0462 C    0  0  0  0  0  0  0  0  0  0  0  0
   10.5886   15.5777   19.6566 C    0  0  0  0  0  0  0  0  0  0  0  0
    9.7408   16.4124   19.4063 O    0  0  0  0  0  0  0  0  0  0  0  0
   11.3113   15.0314   18.6642 N    0  0  0  0  0  0  0  0  0  0  0  0
    8.0602    9.0023   25.2378 H    0  0  0  0  0  0  0  0  0  0  0  0
    6.1812    9.2216   26.8271 H    0  0  0  0  0  0  0  0  0  0  0  0
    5.8706   13.4181   25.8635 H    0  0  0  0  0  0  0  0  0  0  0  0
    7.6269   13.2064   22.8999 H    0  0  0  0  0  0  0  0  0  0  0  0
    7.0442   14.3503   24.0453 H    0  0  0  0  0  0  0  0  0  0  0  0
   11.1355   16.0982   24.1519 H    0  0  0  0  0  0  0  0  0  0  0  0
   11.9475   14.5860   23.7160 H    0  0  0  0  0  0  0  0  0  0  0  0
   11.2208   16.9577   21.9589 H    0  0  0  0  0  0  0  0  0  0  0  0
   12.6577   15.9046   21.8616 H    0  0  0  0  0  0  0  0  0  0  0  0
    8.7393   15.3560   21.6240 H    0  0  0  0  0  0  0  0  0  0  0  0
    9.2300   13.6533   21.4495 H    0  0  0  0  0  0  0  0  0  0  0  0
   11.4214   14.0895   20.9476 H    0  0  0  0  0  0  0  0  0  0  0  0
   12.0370   14.3450   18.8467 H    0  0  0  0  0  0  0  0  0  0  0  0
   11.1229   15.2964   17.7049 H    0  0  0  0  0  0  0  0  0  0  0  0
 11 12  1  0  0  0  0
 10 11  2  0  0  0  0
  5 10  1  0  0  0  0
  4  5  2  0  0  0  0
  3  4  1  0  0  0  0
  2  3  2  0  0  0  0
  1  2  1  0  0  0  0
 23  3  1  0  0  0  0
 24  4  1  0  0  0  0
  6  5  1  0  0  0  0
  7  6  1  0  0  0  0
  8  6  1  0  0  0  0
  9  6  1  0  0  0  0
 25 10  1  0  0  0  0
 26 12  1  0  0  0  0
 27 12  1  0  0  0  0
 13 12  1  0  0  0  0
 14 13  2  0  0  0  0
 15 13  1  0  0  0  0
 16 15  1  0  0  0  0
 28 16  1  0  0  0  0
 29 16  1  0  0  0  0
 17 16  1  0  0  0  0
 30 17  1  0  0  0  0
 31 17  1  0  0  0  0
 18 15  1  0  0  0  0
 32 18  1  0  0  0  0
 33 18  1  0  0  0  0
 19 17  1  0  0  0  0
 20 19  1  0  0  0  0
 34 19  1  0  0  0  0
 21 20  2  0  0  0  0
 22 20  1  0  0  0  0
 35 22  1  0  0  0  0
 36 22  1  0  0  0  0
 11  2  1  0  0  0  0
 19 18  1  0  0  0  0
M  END
>  <FittedScore>
-32.53

$$$$
