A71EV2A-x5570a_best-RMSD
  FITTED

 35 37     0  0  0  0  0  0  0999 V2000
   10.7889   14.6514   18.7989 N    0  0  0  0  0  0  0  0  0  0  0  0
   10.5048   15.5737   19.7308 C    0  0  0  0  0  0  0  0  0  0  0  0
    9.9206   16.5941   19.4167 O    0  0  0  0  0  0  0  0  0  0  0  0
   10.8233   15.1507   21.1693 C    0  0  0  0  0  0  0  0  0  0  0  0
   11.7845   16.0748   21.9240 C    0  0  0  0  0  0  0  0  0  0  0  0
   11.4688   15.7850   23.4008 C    0  0  0  0  0  0  0  0  0  0  0  0
   10.1127   15.1916   23.4841 N    0  0  0  0  0  0  0  0  0  0  0  0
    9.4881   14.8541   24.6647 C    0  0  0  0  0  0  0  0  0  0  0  0
    9.9812   15.1932   25.7281 O    0  0  0  0  0  0  0  0  0  0  0  0
    8.1864   14.0160   24.6235 C    0  0  0  0  0  0  0  0  0  0  0  0
    7.2374   14.2562   25.8371 C    0  0  0  0  0  0  0  0  0  0  0  0
    6.2437   12.7485   26.0777 S    0  0  0  0  0  0  0  0  0  0  0  0
    7.3943   11.7656   25.1821 C    0  0  0  0  0  0  0  0  0  0  0  0
    7.3379   10.3678   25.1030 C    0  0  0  0  0  0  0  0  0  0  0  0
    8.2879    9.6918   24.3235 C    0  0  0  0  0  0  0  0  0  0  0  0
    9.2987   10.4083   23.6626 C    0  0  0  0  0  0  0  0  0  0  0  0
    9.3521   11.8092   23.7570 C    0  0  0  0  0  0  0  0  0  0  0  0
    8.3801   12.4975   24.5144 C    0  0  0  0  0  0  0  0  0  0  0  0
    9.6051   15.0317   22.1000 C    0  0  0  0  0  0  0  0  0  0  0  0
   10.6497   14.8540   17.8179 H    0  0  0  0  0  0  0  0  0  0  0  0
   11.0674   13.7153   19.0812 H    0  0  0  0  0  0  0  0  0  0  0  0
   11.3039   14.1639   21.1522 H    0  0  0  0  0  0  0  0  0  0  0  0
   11.6062   17.1305   21.6899 H    0  0  0  0  0  0  0  0  0  0  0  0
   12.8279   15.8387   21.6907 H    0  0  0  0  0  0  0  0  0  0  0  0
   11.5237   16.7069   23.9883 H    0  0  0  0  0  0  0  0  0  0  0  0
   12.1994   15.0821   23.8153 H    0  0  0  0  0  0  0  0  0  0  0  0
    7.5904   14.3133   23.7541 H    0  0  0  0  0  0  0  0  0  0  0  0
    6.5924   15.1263   25.6982 H    0  0  0  0  0  0  0  0  0  0  0  0
    7.7892   14.3872   26.7688 H    0  0  0  0  0  0  0  0  0  0  0  0
    6.5595    9.8156   25.6260 H    0  0  0  0  0  0  0  0  0  0  0  0
    8.2449    8.6103   24.2357 H    0  0  0  0  0  0  0  0  0  0  0  0
   10.0398    9.8794   23.0664 H    0  0  0  0  0  0  0  0  0  0  0  0
   10.1396   12.3368   23.2279 H    0  0  0  0  0  0  0  0  0  0  0  0
    8.8705   15.8171   21.9065 H    0  0  0  0  0  0  0  0  0  0  0  0
    9.1197   14.0692   21.9317 H    0  0  0  0  0  0  0  0  0  0  0  0
  6  7  1  0  0  0  0
  5  6  1  0  0  0  0
  4  5  1  0  0  0  0
  2  4  1  0  0  0  0
  1  2  1  0  0  0  0
 20  1  1  0  0  0  0
 21  1  1  0  0  0  0
  3  2  2  0  0  0  0
 22  4  1  0  0  0  0
 23  5  1  0  0  0  0
 24  5  1  0  0  0  0
 25  6  1  0  0  0  0
 26  6  1  0  0  0  0
  8  7  1  0  0  0  0
 19  7  1  0  0  0  0
  9  8  2  0  0  0  0
 10  8  1  0  0  0  0
 11 10  1  0  0  0  0
 27 10  1  0  0  0  0
 12 11  1  0  0  0  0
 28 11  1  0  0  0  0
 29 11  1  0  0  0  0
 13 12  1  0  0  0  0
 14 13  2  0  0  0  0
 15 14  1  0  0  0  0
 30 14  1  0  0  0  0
 16 15  2  0  0  0  0
 31 15  1  0  0  0  0
 17 16  1  0  0  0  0
 32 16  1  0  0  0  0
 18 17  2  0  0  0  0
 33 17  1  0  0  0  0
 34 19  1  0  0  0  0
 35 19  1  0  0  0  0
 18 10  1  0  0  0  0
 18 13  1  0  0  0  0
 19  4  1  0  0  0  0
M  END
>  <FittedScore>
-35.25

$$$$
