A71EV2A-x5387a_best-RMSD
  FITTED

 41 42     0  0  0  0  0  0  0999 V2000
    9.2048    8.7394   23.5971 C    0  0  0  0  0  0  0  0  0  0  0  0
    9.0998   10.4913   24.0744 S    0  0  0  0  0  0  0  0  0  0  0  0
    7.5559   10.7096   24.9765 C    0  0  0  0  0  0  0  0  0  0  0  0
    6.7694    9.6058   25.3743 C    0  0  0  0  0  0  0  0  0  0  0  0
    5.5617    9.7860   26.0565 C    0  0  0  0  0  0  0  0  0  0  0  0
    5.1109   11.0699   26.3516 C    0  0  0  0  0  0  0  0  0  0  0  0
    5.8687   12.1811   25.9678 C    0  0  0  0  0  0  0  0  0  0  0  0
    7.0979   12.0160   25.2952 C    0  0  0  0  0  0  0  0  0  0  0  0
    7.9099   13.2757   24.9685 C    0  0  0  0  0  0  0  0  0  0  0  0
    7.8305   13.7654   23.5119 C    0  0  0  0  0  0  0  0  0  0  0  0
    7.1866   13.1324   22.6884 O    0  0  0  0  0  0  0  0  0  0  0  0
    8.5459   14.8899   23.1514 N    0  0  0  0  0  0  0  0  0  0  0  0
    9.5460   15.6277   24.0078 C    0  0  0  0  0  0  0  0  0  0  0  0
   11.0081   15.4459   23.4982 C    0  0  0  0  0  0  0  0  0  0  0  0
   11.4104   14.0842   23.6842 O    0  0  0  0  0  0  0  0  0  0  0  0
   11.1310   15.8561   22.0020 C    0  0  0  0  0  0  0  0  0  0  0  0
   10.0073   15.2213   21.1214 C    0  0  0  0  0  0  0  0  0  0  0  0
   10.0939   15.7506   19.6872 C    0  0  0  0  0  0  0  0  0  0  0  0
   10.6606   14.9001   18.8073 N    0  0  0  0  0  0  0  0  0  0  0  0
    9.6869   16.8415   19.3261 O    0  0  0  0  0  0  0  0  0  0  0  0
    8.5976   15.4256   21.7549 C    0  0  0  0  0  0  0  0  0  0  0  0
    9.2725    8.1234   24.4984 H    0  0  0  0  0  0  0  0  0  0  0  0
   10.1039    8.5813   22.9959 H    0  0  0  0  0  0  0  0  0  0  0  0
    8.3237    8.4638   23.0118 H    0  0  0  0  0  0  0  0  0  0  0  0
    7.0569    8.5799   25.1813 H    0  0  0  0  0  0  0  0  0  0  0  0
    4.9773    8.9157   26.3461 H    0  0  0  0  0  0  0  0  0  0  0  0
    4.1716   11.2122   26.8737 H    0  0  0  0  0  0  0  0  0  0  0  0
    5.4983   13.1757   26.1986 H    0  0  0  0  0  0  0  0  0  0  0  0
    8.9522   13.1013   25.2563 H    0  0  0  0  0  0  0  0  0  0  0  0
    7.5731   14.0913   25.6158 H    0  0  0  0  0  0  0  0  0  0  0  0
    9.5160   15.3530   25.0637 H    0  0  0  0  0  0  0  0  0  0  0  0
    9.3080   16.6964   24.0125 H    0  0  0  0  0  0  0  0  0  0  0  0
   11.6792   16.0725   24.0915 H    0  0  0  0  0  0  0  0  0  0  0  0
   11.0083   13.5390   22.9813 H    0  0  0  0  0  0  0  0  0  0  0  0
   12.1137   15.5720   21.6132 H    0  0  0  0  0  0  0  0  0  0  0  0
   11.0755   16.9485   21.9328 H    0  0  0  0  0  0  0  0  0  0  0  0
   10.1663   14.1364   21.1076 H    0  0  0  0  0  0  0  0  0  0  0  0
   10.8626   13.9437   19.0866 H    0  0  0  0  0  0  0  0  0  0  0  0
   10.7397   15.1638   17.8315 H    0  0  0  0  0  0  0  0  0  0  0  0
    7.8456   14.9735   21.1037 H    0  0  0  0  0  0  0  0  0  0  0  0
    8.3500   16.4900   21.7757 H    0  0  0  0  0  0  0  0  0  0  0  0
  9 10  1  0  0  0  0
  8  9  1  0  0  0  0
  7  8  2  0  0  0  0
  6  7  1  0  0  0  0
  5  6  2  0  0  0  0
  4  5  1  0  0  0  0
  3  4  2  0  0  0  0
  2  3  1  0  0  0  0
  1  2  1  0  0  0  0
 22  1  1  0  0  0  0
 23  1  1  0  0  0  0
 24  1  1  0  0  0  0
 25  4  1  0  0  0  0
 26  5  1  0  0  0  0
 27  6  1  0  0  0  0
 28  7  1  0  0  0  0
 29  9  1  0  0  0  0
 30  9  1  0  0  0  0
 11 10  2  0  0  0  0
 12 10  1  0  0  0  0
 13 12  1  0  0  0  0
 14 13  1  0  0  0  0
 31 13  1  0  0  0  0
 32 13  1  0  0  0  0
 15 14  1  0  0  0  0
 16 14  1  0  0  0  0
 33 14  1  0  0  0  0
 34 15  1  0  0  0  0
 17 16  1  0  0  0  0
 35 16  1  0  0  0  0
 36 16  1  0  0  0  0
 18 17  1  0  0  0  0
 21 17  1  0  0  0  0
 37 17  1  0  0  0  0
 19 18  1  0  0  0  0
 20 18  2  0  0  0  0
 38 19  1  0  0  0  0
 39 19  1  0  0  0  0
 40 21  1  0  0  0  0
 41 21  1  0  0  0  0
  8  3  1  0  0  0  0
 21 12  1  0  0  0  0
M  END
>  <FittedScore>
-34.22

$$$$
