A71EV2A-x6791a_best-RMSD
  FITTED

 57 59     0  0  0  0  0  0  0999 V2000
   10.0616   16.9330   19.2683 O    0  0  0  0  0  0  0  0  0  0  0  0
   10.4758   15.8505   19.6387 C    0  0  0  0  0  0  0  0  0  0  0  0
   10.8444   14.9343   18.7239 N    0  0  0  0  0  0  0  0  0  0  0  0
   10.4175   15.3552   21.0855 C    0  0  0  0  0  0  0  0  0  0  0  0
   11.1922   16.3126   22.0367 C    0  0  0  0  0  0  0  0  0  0  0  0
   11.0538   15.8523   23.5080 C    0  0  0  0  0  0  0  0  0  0  0  0
    9.5679   15.6323   23.8988 C    0  0  0  0  0  0  0  0  0  0  0  0
    8.9444   15.1199   21.5571 C    0  0  0  0  0  0  0  0  0  0  0  0
    8.8147   14.6923   22.9888 N    0  0  0  0  0  0  0  0  0  0  0  0
    7.9399   13.6975   23.3942 C    0  0  0  0  0  0  0  0  0  0  0  0
    7.1104   13.2259   22.6245 O    0  0  0  0  0  0  0  0  0  0  0  0
    7.9725   13.2343   24.8594 C    0  0  0  0  0  0  0  0  0  0  0  0
    7.2725   11.8946   25.1290 C    0  0  0  0  0  0  0  0  0  0  0  0
    7.8372   10.6541   24.7455 C    0  0  0  0  0  0  0  0  0  0  0  0
    9.4705   10.5760   24.0072 S    0  0  0  0  0  0  0  0  0  0  0  0
    9.8380    8.8550   23.5467 C    0  0  0  0  0  0  0  0  0  0  0  0
    6.0205   11.9211   25.7746 C    0  0  0  0  0  0  0  0  0  0  0  0
    5.2643   10.7466   26.0217 C    0  0  0  0  0  0  0  0  0  0  0  0
    5.8325    9.5326   25.5656 C    0  0  0  0  0  0  0  0  0  0  0  0
    7.0894    9.4866   24.9589 C    0  0  0  0  0  0  0  0  0  0  0  0
    3.9157   10.7829   26.7074 C    0  0  0  0  0  0  0  0  0  0  0  0
    3.4606    9.7126   27.5262 C    0  0  0  0  0  0  0  0  0  0  0  0
    2.1705    9.7238   28.1101 C    0  0  0  0  0  0  0  0  0  0  0  0
    1.7078    8.6437   28.8654 N    0  0  0  0  0  0  0  0  0  0  0  0
    2.2770    7.2803   28.7082 C    0  0  0  0  0  0  0  0  0  0  0  0
    0.5451    8.7661   29.7807 C    0  0  0  0  0  0  0  0  0  0  0  0
    1.3437   10.8011   27.9415 N    0  0  0  0  0  0  0  0  0  0  0  0
    1.7673   11.8563   27.2004 C    0  0  0  0  0  0  0  0  0  0  0  0
    3.0219   11.8787   26.5743 C    0  0  0  0  0  0  0  0  0  0  0  0
   10.8453   15.1686   17.7377 H    0  0  0  0  0  0  0  0  0  0  0  0
   11.0061   13.9684   19.0008 H    0  0  0  0  0  0  0  0  0  0  0  0
   10.9212   14.3819   21.1572 H    0  0  0  0  0  0  0  0  0  0  0  0
   12.2508   16.3258   21.7623 H    0  0  0  0  0  0  0  0  0  0  0  0
   10.8288   17.3426   21.9373 H    0  0  0  0  0  0  0  0  0  0  0  0
   11.6156   14.9260   23.6624 H    0  0  0  0  0  0  0  0  0  0  0  0
   11.4941   16.6044   24.1677 H    0  0  0  0  0  0  0  0  0  0  0  0
    9.5617   15.3278   24.9430 H    0  0  0  0  0  0  0  0  0  0  0  0
    9.0495   16.5962   23.8896 H    0  0  0  0  0  0  0  0  0  0  0  0
    8.5115   14.3777   20.8805 H    0  0  0  0  0  0  0  0  0  0  0  0
    8.3527   16.0299   21.4153 H    0  0  0  0  0  0  0  0  0  0  0  0
    9.0025   13.1453   25.2151 H    0  0  0  0  0  0  0  0  0  0  0  0
    7.5305   14.0223   25.4768 H    0  0  0  0  0  0  0  0  0  0  0  0
    9.1128    8.4954   22.8132 H    0  0  0  0  0  0  0  0  0  0  0  0
    9.8263    8.2180   24.4311 H    0  0  0  0  0  0  0  0  0  0  0  0
   10.8339    8.8074   23.1030 H    0  0  0  0  0  0  0  0  0  0  0  0
    5.6320   12.8846   26.0962 H    0  0  0  0  0  0  0  0  0  0  0  0
    5.3016    8.5912   25.6742 H    0  0  0  0  0  0  0  0  0  0  0  0
    7.4584    8.5143   24.6544 H    0  0  0  0  0  0  0  0  0  0  0  0
    4.1200    8.8683   27.7113 H    0  0  0  0  0  0  0  0  0  0  0  0
    1.6297    6.4929   29.1028 H    0  0  0  0  0  0  0  0  0  0  0  0
    3.2352    7.1990   29.2286 H    0  0  0  0  0  0  0  0  0  0  0  0
    2.4480    7.0232   27.6592 H    0  0  0  0  0  0  0  0  0  0  0  0
   -0.3956    8.8107   29.2248 H    0  0  0  0  0  0  0  0  0  0  0  0
    0.6097    9.6737   30.3871 H    0  0  0  0  0  0  0  0  0  0  0  0
    0.4549    7.9383   30.4888 H    0  0  0  0  0  0  0  0  0  0  0  0
    1.1067   12.7121   27.0889 H    0  0  0  0  0  0  0  0  0  0  0  0
    3.2790   12.7488   25.9747 H    0  0  0  0  0  0  0  0  0  0  0  0
 12 13  1  0  0  0  0
 10 12  1  0  0  0  0
  9 10  1  0  0  0  0
  7  9  1  0  0  0  0
  6  7  1  0  0  0  0
  5  6  1  0  0  0  0
  4  5  1  0  0  0  0
  2  4  1  0  0  0  0
  1  2  2  0  0  0  0
  3  2  1  0  0  0  0
 30  3  1  0  0  0  0
 31  3  1  0  0  0  0
 32  4  1  0  0  0  0
 33  5  1  0  0  0  0
 34  5  1  0  0  0  0
 35  6  1  0  0  0  0
 36  6  1  0  0  0  0
 37  7  1  0  0  0  0
 38  7  1  0  0  0  0
  8  4  1  0  0  0  0
 39  8  1  0  0  0  0
 40  8  1  0  0  0  0
 11 10  2  0  0  0  0
 41 12  1  0  0  0  0
 42 12  1  0  0  0  0
 14 13  1  0  0  0  0
 20 14  2  0  0  0  0
 15 14  1  0  0  0  0
 16 15  1  0  0  0  0
 43 16  1  0  0  0  0
 44 16  1  0  0  0  0
 45 16  1  0  0  0  0
 17 13  2  0  0  0  0
 46 17  1  0  0  0  0
 18 17  1  0  0  0  0
 19 18  2  0  0  0  0
 47 19  1  0  0  0  0
 48 20  1  0  0  0  0
 21 18  1  0  0  0  0
 29 21  2  0  0  0  0
 22 21  1  0  0  0  0
 49 22  1  0  0  0  0
 23 22  2  0  0  0  0
 24 23  1  0  0  0  0
 25 24  1  0  0  0  0
 50 25  1  0  0  0  0
 51 25  1  0  0  0  0
 52 25  1  0  0  0  0
 26 24  1  0  0  0  0
 53 26  1  0  0  0  0
 54 26  1  0  0  0  0
 55 26  1  0  0  0  0
 27 23  1  0  0  0  0
 28 27  2  0  0  0  0
 56 28  1  0  0  0  0
 57 29  1  0  0  0  0
  9  8  1  0  0  0  0
 20 19  1  0  0  0  0
 29 28  1  0  0  0  0
M  END
>  <FittedScore>
-37.51

$$$$
