A71EV2A-x5278a_lowest-energy
  FITTED

 40 41     0  0  0  0  0  0  0999 V2000
   10.0253   16.7920   19.3231 O    0  0  0  0  0  0  0  0  0  0  0  0
   10.4983   15.7451   19.7110 C    0  0  0  0  0  0  0  0  0  0  0  0
   10.8874   14.8207   18.8176 N    0  0  0  0  0  0  0  0  0  0  0  0
   10.4734   15.2900   21.1712 C    0  0  0  0  0  0  0  0  0  0  0  0
   11.2100   16.2963   22.1045 C    0  0  0  0  0  0  0  0  0  0  0  0
   11.1383   15.7946   23.5700 C    0  0  0  0  0  0  0  0  0  0  0  0
    9.6740   15.5654   24.0230 C    0  0  0  0  0  0  0  0  0  0  0  0
    9.0080   15.0064   21.6432 C    0  0  0  0  0  0  0  0  0  0  0  0
    8.9393   14.6689   23.0891 N    0  0  0  0  0  0  0  0  0  0  0  0
    7.5262   13.8773   23.6381 S    0  0  0  0  0  0  0  0  0  0  0  0
    6.8679   13.1349   22.5944 O    0  0  0  0  0  0  0  0  0  0  0  0
    6.7542   14.7955   24.4310 O    0  0  0  0  0  0  0  0  0  0  0  0
    8.3706   12.7879   24.6377 N    0  0  0  0  0  0  0  0  0  0  0  0
    7.6764   11.7517   25.2016 C    0  0  0  0  0  0  0  0  0  0  0  0
    7.9676   10.4256   24.8146 C    0  0  0  0  0  0  0  0  0  0  0  0
    9.0335   10.2069   23.9411 O    0  0  0  0  0  0  0  0  0  0  0  0
    9.4395    8.9360   23.3818 C    0  0  0  0  0  0  0  0  0  0  0  0
    6.6648   12.0058   26.1460 C    0  0  0  0  0  0  0  0  0  0  0  0
    5.8881   10.9581   26.6529 C    0  0  0  0  0  0  0  0  0  0  0  0
    4.6161   11.3171   27.7712 CL   0  0  0  0  0  0  0  0  0  0  0  0
    6.1440    9.6418   26.2346 C    0  0  0  0  0  0  0  0  0  0  0  0
    7.1718    9.3801   25.3197 C    0  0  0  0  0  0  0  0  0  0  0  0
   11.1036   13.8727   19.1172 H    0  0  0  0  0  0  0  0  0  0  0  0
   10.8231   15.0259   17.8246 H    0  0  0  0  0  0  0  0  0  0  0  0
   11.0179   14.3411   21.2554 H    0  0  0  0  0  0  0  0  0  0  0  0
   12.2577   16.3920   21.8017 H    0  0  0  0  0  0  0  0  0  0  0  0
   10.7629   17.2933   22.0330 H    0  0  0  0  0  0  0  0  0  0  0  0
   11.7056   14.8633   23.6752 H    0  0  0  0  0  0  0  0  0  0  0  0
   11.6101   16.5253   24.2309 H    0  0  0  0  0  0  0  0  0  0  0  0
    9.7040   15.1541   25.0348 H    0  0  0  0  0  0  0  0  0  0  0  0
    9.1654   16.5319   24.1065 H    0  0  0  0  0  0  0  0  0  0  0  0
    8.6269   14.1897   21.0236 H    0  0  0  0  0  0  0  0  0  0  0  0
    8.3681   15.8667   21.4320 H    0  0  0  0  0  0  0  0  0  0  0  0
    9.1623   12.4550   24.0979 H    0  0  0  0  0  0  0  0  0  0  0  0
   10.2438    9.1272   22.6681 H    0  0  0  0  0  0  0  0  0  0  0  0
    8.6074    8.4733   22.8472 H    0  0  0  0  0  0  0  0  0  0  0  0
    9.8161    8.2560   24.1515 H    0  0  0  0  0  0  0  0  0  0  0  0
    6.4664   13.0205   26.4825 H    0  0  0  0  0  0  0  0  0  0  0  0
    5.5499    8.8142   26.6158 H    0  0  0  0  0  0  0  0  0  0  0  0
    7.3419    8.3516   25.0145 H    0  0  0  0  0  0  0  0  0  0  0  0
  7  9  1  0  0  0  0
  6  7  1  0  0  0  0
  5  6  1  0  0  0  0
  4  5  1  0  0  0  0
  2  4  1  0  0  0  0
  1  2  2  0  0  0  0
  3  2  1  0  0  0  0
 23  3  1  0  0  0  0
 24  3  1  0  0  0  0
 25  4  1  0  0  0  0
 26  5  1  0  0  0  0
 27  5  1  0  0  0  0
 28  6  1  0  0  0  0
 29  6  1  0  0  0  0
 30  7  1  0  0  0  0
 31  7  1  0  0  0  0
  8  4  1  0  0  0  0
 32  8  1  0  0  0  0
 33  8  1  0  0  0  0
 10  9  1  0  0  0  0
 11 10  2  0  0  0  0
 12 10  2  0  0  0  0
 13 10  1  0  0  0  0
 34 13  1  0  0  0  0
 14 13  1  0  0  0  0
 15 14  1  0  0  0  0
 22 15  2  0  0  0  0
 16 15  1  0  0  0  0
 17 16  1  0  0  0  0
 35 17  1  0  0  0  0
 36 17  1  0  0  0  0
 37 17  1  0  0  0  0
 18 14  2  0  0  0  0
 38 18  1  0  0  0  0
 19 18  1  0  0  0  0
 20 19  1  0  0  0  0
 21 19  2  0  0  0  0
 39 21  1  0  0  0  0
 40 22  1  0  0  0  0
  9  8  1  0  0  0  0
 22 21  1  0  0  0  0
M  END
>  <FittedScore>
-30.71

$$$$
