A71EV2A-x5278a_best-RMSD
  FITTED

 40 41     0  0  0  0  0  0  0999 V2000
    9.8685   16.7250   19.2982 O    0  0  0  0  0  0  0  0  0  0  0  0
   10.3862   15.7044   19.7020 C    0  0  0  0  0  0  0  0  0  0  0  0
   10.9145   14.8365   18.8169 N    0  0  0  0  0  0  0  0  0  0  0  0
   10.3355   15.2362   21.1616 C    0  0  0  0  0  0  0  0  0  0  0  0
   11.1814   16.1623   22.0811 C    0  0  0  0  0  0  0  0  0  0  0  0
   11.0789   15.7049   23.5599 C    0  0  0  0  0  0  0  0  0  0  0  0
    9.6071   15.5790   24.0335 C    0  0  0  0  0  0  0  0  0  0  0  0
    8.8616   15.1154   21.6645 C    0  0  0  0  0  0  0  0  0  0  0  0
    8.7845   14.7463   23.1082 N    0  0  0  0  0  0  0  0  0  0  0  0
    7.2448   14.1522   23.6065 S    0  0  0  0  0  0  0  0  0  0  0  0
    6.7346   13.1815   22.6681 O    0  0  0  0  0  0  0  0  0  0  0  0
    6.4074   15.2535   23.9761 O    0  0  0  0  0  0  0  0  0  0  0  0
    7.7226   13.3908   25.0550 N    0  0  0  0  0  0  0  0  0  0  0  0
    7.6942   12.0228   25.1140 C    0  0  0  0  0  0  0  0  0  0  0  0
    6.7420   11.3395   25.9037 C    0  0  0  0  0  0  0  0  0  0  0  0
    5.8575   12.0586   26.7023 O    0  0  0  0  0  0  0  0  0  0  0  0
    4.8212   11.4309   27.4988 C    0  0  0  0  0  0  0  0  0  0  0  0
    8.6036   11.3002   24.3257 C    0  0  0  0  0  0  0  0  0  0  0  0
    8.5105    9.9099   24.2562 C    0  0  0  0  0  0  0  0  0  0  0  0
    9.5893    9.0601   23.2171 CL   0  0  0  0  0  0  0  0  0  0  0  0
    7.5410    9.2243   25.0001 C    0  0  0  0  0  0  0  0  0  0  0  0
    6.6752    9.9312   25.8350 C    0  0  0  0  0  0  0  0  0  0  0  0
   11.1725   13.9048   19.1291 H    0  0  0  0  0  0  0  0  0  0  0  0
   10.8839   15.0283   17.8193 H    0  0  0  0  0  0  0  0  0  0  0  0
   10.7787   14.2329   21.2284 H    0  0  0  0  0  0  0  0  0  0  0  0
   12.2280   16.1428   21.7662 H    0  0  0  0  0  0  0  0  0  0  0  0
   10.8427   17.1985   21.9947 H    0  0  0  0  0  0  0  0  0  0  0  0
   11.6016   14.7514   23.6844 H    0  0  0  0  0  0  0  0  0  0  0  0
   11.5998   16.4259   24.1941 H    0  0  0  0  0  0  0  0  0  0  0  0
    9.6381   15.1665   25.0443 H    0  0  0  0  0  0  0  0  0  0  0  0
    9.1748   16.5789   24.1374 H    0  0  0  0  0  0  0  0  0  0  0  0
    8.3684   14.3743   21.0283 H    0  0  0  0  0  0  0  0  0  0  0  0
    8.3379   16.0639   21.4859 H    0  0  0  0  0  0  0  0  0  0  0  0
    7.2803   13.8829   25.8281 H    0  0  0  0  0  0  0  0  0  0  0  0
    4.0625   10.9722   26.8628 H    0  0  0  0  0  0  0  0  0  0  0  0
    4.3266   12.1920   28.1050 H    0  0  0  0  0  0  0  0  0  0  0  0
    5.2621   10.6853   28.1650 H    0  0  0  0  0  0  0  0  0  0  0  0
    9.3520   11.8206   23.7266 H    0  0  0  0  0  0  0  0  0  0  0  0
    7.4591    8.1406   24.9298 H    0  0  0  0  0  0  0  0  0  0  0  0
    5.9405    9.3720   26.4021 H    0  0  0  0  0  0  0  0  0  0  0  0
  7  9  1  0  0  0  0
  6  7  1  0  0  0  0
  5  6  1  0  0  0  0
  4  5  1  0  0  0  0
  2  4  1  0  0  0  0
  1  2  2  0  0  0  0
  3  2  1  0  0  0  0
 23  3  1  0  0  0  0
 24  3  1  0  0  0  0
 25  4  1  0  0  0  0
 26  5  1  0  0  0  0
 27  5  1  0  0  0  0
 28  6  1  0  0  0  0
 29  6  1  0  0  0  0
 30  7  1  0  0  0  0
 31  7  1  0  0  0  0
  8  4  1  0  0  0  0
 32  8  1  0  0  0  0
 33  8  1  0  0  0  0
 10  9  1  0  0  0  0
 11 10  2  0  0  0  0
 12 10  2  0  0  0  0
 13 10  1  0  0  0  0
 34 13  1  0  0  0  0
 14 13  1  0  0  0  0
 15 14  1  0  0  0  0
 22 15  2  0  0  0  0
 16 15  1  0  0  0  0
 17 16  1  0  0  0  0
 35 17  1  0  0  0  0
 36 17  1  0  0  0  0
 37 17  1  0  0  0  0
 18 14  2  0  0  0  0
 38 18  1  0  0  0  0
 19 18  1  0  0  0  0
 20 19  1  0  0  0  0
 21 19  2  0  0  0  0
 39 21  1  0  0  0  0
 40 22  1  0  0  0  0
  9  8  1  0  0  0  0
 22 21  1  0  0  0  0
M  END
>  <FittedScore>
-31.58

$$$$
