A71EV2A-x4303b_lowest-energy
  FITTED

 45 46     0  0  0  0  0  0  0999 V2000
    9.9795   16.7829   19.4067 O    0  0  0  0  0  0  0  0  0  0  0  0
   10.5033   15.7353   19.7373 C    0  0  0  0  0  0  0  0  0  0  0  0
   10.9090   14.8420   18.8094 N    0  0  0  0  0  0  0  0  0  0  0  0
   10.5504   15.2417   21.1761 C    0  0  0  0  0  0  0  0  0  0  0  0
   11.5170   16.1010   22.0451 C    0  0  0  0  0  0  0  0  0  0  0  0
   11.5311   15.5698   23.5057 C    0  0  0  0  0  0  0  0  0  0  0  0
   10.0955   15.3954   24.0907 C    0  0  0  0  0  0  0  0  0  0  0  0
    9.1303   15.2215   21.8156 C    0  0  0  0  0  0  0  0  0  0  0  0
    9.1367   14.6406   23.2003 N    0  0  0  0  0  0  0  0  0  0  0  0
    8.3422   13.5745   23.5513 C    0  0  0  0  0  0  0  0  0  0  0  0
    7.6019   13.0211   22.7553 O    0  0  0  0  0  0  0  0  0  0  0  0
    8.3580   13.1920   24.8570 N    0  0  0  0  0  0  0  0  0  0  0  0
    7.6865   12.0585   25.4245 C    0  0  0  0  0  0  0  0  0  0  0  0
    7.9962   10.7247   25.0640 C    0  0  0  0  0  0  0  0  0  0  0  0
    9.0518   10.4959   24.1717 O    0  0  0  0  0  0  0  0  0  0  0  0
    9.4789    9.2313   23.6143 C    0  0  0  0  0  0  0  0  0  0  0  0
    6.6604   12.3278   26.3445 C    0  0  0  0  0  0  0  0  0  0  0  0
    5.8873   11.2816   26.8799 C    0  0  0  0  0  0  0  0  0  0  0  0
    4.5436   11.6287   27.9988 S    0  0  0  0  0  0  0  0  0  0  0  0
    3.4128   10.8284   27.6170 O    0  0  0  0  0  0  0  0  0  0  0  0
    4.3719   13.0510   28.1490 O    0  0  0  0  0  0  0  0  0  0  0  0
    5.1266   10.9500   29.5410 C    0  0  0  0  0  0  0  0  0  0  0  0
    6.1795    9.9577   26.5109 C    0  0  0  0  0  0  0  0  0  0  0  0
    7.2208    9.6793   25.6145 C    0  0  0  0  0  0  0  0  0  0  0  0
   11.1661   13.8952   19.0707 H    0  0  0  0  0  0  0  0  0  0  0  0
   10.8380   15.0659   17.8279 H    0  0  0  0  0  0  0  0  0  0  0  0
   10.9239   14.2098   21.1924 H    0  0  0  0  0  0  0  0  0  0  0  0
   12.5267   16.0680   21.6268 H    0  0  0  0  0  0  0  0  0  0  0  0
   11.2028   17.1536   22.0419 H    0  0  0  0  0  0  0  0  0  0  0  0
   12.0595   14.6111   23.5394 H    0  0  0  0  0  0  0  0  0  0  0  0
   12.0971   16.2619   24.1327 H    0  0  0  0  0  0  0  0  0  0  0  0
   10.2188   14.9255   25.0707 H    0  0  0  0  0  0  0  0  0  0  0  0
    9.6731   16.3851   24.2892 H    0  0  0  0  0  0  0  0  0  0  0  0
    8.4590   14.6833   21.1404 H    0  0  0  0  0  0  0  0  0  0  0  0
    8.7222   16.2390   21.8672 H    0  0  0  0  0  0  0  0  0  0  0  0
    8.7366   13.8345   25.5509 H    0  0  0  0  0  0  0  0  0  0  0  0
    9.8747    8.5896   24.4062 H    0  0  0  0  0  0  0  0  0  0  0  0
   10.2832    9.4339   22.9030 H    0  0  0  0  0  0  0  0  0  0  0  0
    8.6598    8.7238   23.0990 H    0  0  0  0  0  0  0  0  0  0  0  0
    6.4487   13.3583   26.6145 H    0  0  0  0  0  0  0  0  0  0  0  0
    6.0845   11.4011   29.8100 H    0  0  0  0  0  0  0  0  0  0  0  0
    5.2566    9.8693   29.4417 H    0  0  0  0  0  0  0  0  0  0  0  0
    4.3947   11.1526   30.3278 H    0  0  0  0  0  0  0  0  0  0  0  0
    5.5998    9.1319   26.9254 H    0  0  0  0  0  0  0  0  0  0  0  0
    7.4103    8.6405   25.3501 H    0  0  0  0  0  0  0  0  0  0  0  0
 10 12  1  0  0  0  0
  9 10  1  0  0  0  0
  7  9  1  0  0  0  0
  6  7  1  0  0  0  0
  5  6  1  0  0  0  0
  4  5  1  0  0  0  0
  2  4  1  0  0  0  0
  1  2  2  0  0  0  0
  3  2  1  0  0  0  0
 25  3  1  0  0  0  0
 26  3  1  0  0  0  0
 27  4  1  0  0  0  0
 28  5  1  0  0  0  0
 29  5  1  0  0  0  0
 30  6  1  0  0  0  0
 31  6  1  0  0  0  0
 32  7  1  0  0  0  0
 33  7  1  0  0  0  0
  8  4  1  0  0  0  0
 34  8  1  0  0  0  0
 35  8  1  0  0  0  0
 11 10  2  0  0  0  0
 36 12  1  0  0  0  0
 13 12  1  0  0  0  0
 14 13  1  0  0  0  0
 24 14  2  0  0  0  0
 15 14  1  0  0  0  0
 16 15  1  0  0  0  0
 37 16  1  0  0  0  0
 38 16  1  0  0  0  0
 39 16  1  0  0  0  0
 17 13  2  0  0  0  0
 40 17  1  0  0  0  0
 18 17  1  0  0  0  0
 19 18  1  0  0  0  0
 20 19  2  0  0  0  0
 21 19  2  0  0  0  0
 22 19  1  0  0  0  0
 41 22  1  0  0  0  0
 42 22  1  0  0  0  0
 43 22  1  0  0  0  0
 23 18  2  0  0  0  0
 44 23  1  0  0  0  0
 45 24  1  0  0  0  0
  9  8  1  0  0  0  0
 24 23  1  0  0  0  0
M  END
>  <FittedScore>
-41.44

$$$$
