A71EV2A-x4303b_best-RMSD
  FITTED

 45 46     0  0  0  0  0  0  0999 V2000
    9.9027   16.8869   19.5072 O    0  0  0  0  0  0  0  0  0  0  0  0
   10.3662   15.8018   19.8042 C    0  0  0  0  0  0  0  0  0  0  0  0
   10.6882   14.9082   18.8467 N    0  0  0  0  0  0  0  0  0  0  0  0
   10.4212   15.2745   21.2334 C    0  0  0  0  0  0  0  0  0  0  0  0
   11.5097   16.0052   22.0742 C    0  0  0  0  0  0  0  0  0  0  0  0
   11.5174   15.4857   23.5402 C    0  0  0  0  0  0  0  0  0  0  0  0
   10.0916   15.4008   24.1669 C    0  0  0  0  0  0  0  0  0  0  0  0
    9.0386   15.3696   21.9376 C    0  0  0  0  0  0  0  0  0  0  0  0
    9.0681   14.7266   23.2855 N    0  0  0  0  0  0  0  0  0  0  0  0
    8.3001   13.6255   23.5845 C    0  0  0  0  0  0  0  0  0  0  0  0
    7.6209   13.0452   22.7521 O    0  0  0  0  0  0  0  0  0  0  0  0
    8.2276   13.2638   24.8916 N    0  0  0  0  0  0  0  0  0  0  0  0
    7.5784   12.1045   25.4343 C    0  0  0  0  0  0  0  0  0  0  0  0
    7.9229   10.7864   25.0418 C    0  0  0  0  0  0  0  0  0  0  0  0
    8.9731   10.6067   24.1331 O    0  0  0  0  0  0  0  0  0  0  0  0
    9.4400    9.3498   23.5858 C    0  0  0  0  0  0  0  0  0  0  0  0
    6.5518   12.3226   26.3656 C    0  0  0  0  0  0  0  0  0  0  0  0
    5.8128   11.2456   26.8808 C    0  0  0  0  0  0  0  0  0  0  0  0
    4.4792   11.5378   28.0246 S    0  0  0  0  0  0  0  0  0  0  0  0
    3.4853   10.5126   27.8666 O    0  0  0  0  0  0  0  0  0  0  0  0
    4.0721   12.9167   27.9718 O    0  0  0  0  0  0  0  0  0  0  0  0
    5.2702   11.2588   29.5944 C    0  0  0  0  0  0  0  0  0  0  0  0
    6.1431    9.9352   26.4901 C    0  0  0  0  0  0  0  0  0  0  0  0
    7.1900    9.7069   25.5852 C    0  0  0  0  0  0  0  0  0  0  0  0
   10.6721   15.1780   17.8706 H    0  0  0  0  0  0  0  0  0  0  0  0
   10.8676   13.9382   19.0944 H    0  0  0  0  0  0  0  0  0  0  0  0
   10.6887   14.2089   21.2164 H    0  0  0  0  0  0  0  0  0  0  0  0
   12.4916   15.8294   21.6284 H    0  0  0  0  0  0  0  0  0  0  0  0
   11.3431   17.0874   22.0661 H    0  0  0  0  0  0  0  0  0  0  0  0
   11.9787   14.4927   23.5631 H    0  0  0  0  0  0  0  0  0  0  0  0
   12.1481   16.1368   24.1511 H    0  0  0  0  0  0  0  0  0  0  0  0
   10.2128   14.8999   25.1293 H    0  0  0  0  0  0  0  0  0  0  0  0
    9.7434   16.4114   24.4050 H    0  0  0  0  0  0  0  0  0  0  0  0
    8.2808   14.9343   21.2806 H    0  0  0  0  0  0  0  0  0  0  0  0
    8.7358   16.4162   22.0492 H    0  0  0  0  0  0  0  0  0  0  0  0
    8.5205   13.9375   25.5974 H    0  0  0  0  0  0  0  0  0  0  0  0
    9.7997    8.6907   24.3788 H    0  0  0  0  0  0  0  0  0  0  0  0
   10.2729    9.5581   22.9106 H    0  0  0  0  0  0  0  0  0  0  0  0
    8.6362    8.8622   23.0282 H    0  0  0  0  0  0  0  0  0  0  0  0
    6.3117   13.3396   26.6638 H    0  0  0  0  0  0  0  0  0  0  0  0
    6.0560   12.0001   29.7559 H    0  0  0  0  0  0  0  0  0  0  0  0
    5.7173   10.2621   29.6073 H    0  0  0  0  0  0  0  0  0  0  0  0
    4.5344   11.3343   30.3981 H    0  0  0  0  0  0  0  0  0  0  0  0
    5.5932    9.0832   26.8883 H    0  0  0  0  0  0  0  0  0  0  0  0
    7.4110    8.6797   25.3088 H    0  0  0  0  0  0  0  0  0  0  0  0
 10 12  1  0  0  0  0
  9 10  1  0  0  0  0
  7  9  1  0  0  0  0
  6  7  1  0  0  0  0
  5  6  1  0  0  0  0
  4  5  1  0  0  0  0
  2  4  1  0  0  0  0
  1  2  2  0  0  0  0
  3  2  1  0  0  0  0
 25  3  1  0  0  0  0
 26  3  1  0  0  0  0
 27  4  1  0  0  0  0
 28  5  1  0  0  0  0
 29  5  1  0  0  0  0
 30  6  1  0  0  0  0
 31  6  1  0  0  0  0
 32  7  1  0  0  0  0
 33  7  1  0  0  0  0
  8  4  1  0  0  0  0
 34  8  1  0  0  0  0
 35  8  1  0  0  0  0
 11 10  2  0  0  0  0
 36 12  1  0  0  0  0
 13 12  1  0  0  0  0
 14 13  1  0  0  0  0
 24 14  2  0  0  0  0
 15 14  1  0  0  0  0
 16 15  1  0  0  0  0
 37 16  1  0  0  0  0
 38 16  1  0  0  0  0
 39 16  1  0  0  0  0
 17 13  2  0  0  0  0
 40 17  1  0  0  0  0
 18 17  1  0  0  0  0
 19 18  1  0  0  0  0
 20 19  2  0  0  0  0
 21 19  2  0  0  0  0
 22 19  1  0  0  0  0
 41 22  1  0  0  0  0
 42 22  1  0  0  0  0
 43 22  1  0  0  0  0
 23 18  2  0  0  0  0
 44 23  1  0  0  0  0
 45 24  1  0  0  0  0
  9  8  1  0  0  0  0
 24 23  1  0  0  0  0
M  END
>  <FittedScore>
-40.02

$$$$
