A71EV2A-x5877a_best-RMSD
  FITTED

 54 56     0  0  0  0  0  0  0999 V2000
   -1.3366   12.7231   26.8613 C    0  0  0  0  0  0  0  0  0  0  0  0
   -0.3655   11.9564   27.6213 O    0  0  0  0  0  0  0  0  0  0  0  0
    0.9695   11.7904   27.2675 C    0  0  0  0  0  0  0  0  0  0  0  0
    1.5599   12.6490   26.3887 N    0  0  0  0  0  0  0  0  0  0  0  0
    2.8548   12.4634   26.0229 C    0  0  0  0  0  0  0  0  0  0  0  0
    3.6402   11.3821   26.5087 C    0  0  0  0  0  0  0  0  0  0  0  0
    5.0358   11.1431   26.0069 C    0  0  0  0  0  0  0  0  0  0  0  0
    5.4814    9.8392   25.6931 C    0  0  0  0  0  0  0  0  0  0  0  0
    6.7594    9.6127   25.1817 C    0  0  0  0  0  0  0  0  0  0  0  0
    7.6597   10.6664   24.9692 C    0  0  0  0  0  0  0  0  0  0  0  0
    9.3173   10.3479   24.3495 S    0  0  0  0  0  0  0  0  0  0  0  0
    9.3544    8.7050   23.5720 C    0  0  0  0  0  0  0  0  0  0  0  0
    7.2355   11.9843   25.2683 C    0  0  0  0  0  0  0  0  0  0  0  0
    8.1205   13.2137   25.0130 C    0  0  0  0  0  0  0  0  0  0  0  0
    8.1845   13.6564   23.5371 C    0  0  0  0  0  0  0  0  0  0  0  0
    7.4652   13.1045   22.7173 O    0  0  0  0  0  0  0  0  0  0  0  0
    8.9997   14.7124   23.1718 N    0  0  0  0  0  0  0  0  0  0  0  0
    9.9196   15.5010   24.0743 C    0  0  0  0  0  0  0  0  0  0  0  0
   11.3747   15.6454   23.5400 C    0  0  0  0  0  0  0  0  0  0  0  0
   11.4077   16.1947   22.0906 C    0  0  0  0  0  0  0  0  0  0  0  0
   10.4585   15.3550   21.1893 C    0  0  0  0  0  0  0  0  0  0  0  0
   10.4708   15.8732   19.7567 C    0  0  0  0  0  0  0  0  0  0  0  0
   10.8759   14.9734   18.8399 N    0  0  0  0  0  0  0  0  0  0  0  0
   10.0212   16.9564   19.4253 O    0  0  0  0  0  0  0  0  0  0  0  0
    9.0184   15.2929   21.7873 C    0  0  0  0  0  0  0  0  0  0  0  0
    5.9394   12.2015   25.7739 C    0  0  0  0  0  0  0  0  0  0  0  0
    3.0217   10.5128   27.4452 C    0  0  0  0  0  0  0  0  0  0  0  0
    1.6871   10.7140   27.8290 C    0  0  0  0  0  0  0  0  0  0  0  0
    1.0819    9.8025   28.7728 C    0  0  0  0  0  0  0  0  0  0  0  0
    0.6016    9.0839   29.5136 N    0  0  0  0  0  0  0  0  0  0  0  0
   -1.4241   12.3266   25.8471 H    0  0  0  0  0  0  0  0  0  0  0  0
   -1.0484   13.7766   26.8223 H    0  0  0  0  0  0  0  0  0  0  0  0
   -2.3073   12.6461   27.3546 H    0  0  0  0  0  0  0  0  0  0  0  0
    3.2781   13.1631   25.3058 H    0  0  0  0  0  0  0  0  0  0  0  0
    4.8273    8.9807   25.8304 H    0  0  0  0  0  0  0  0  0  0  0  0
    7.0321    8.5865   24.9735 H    0  0  0  0  0  0  0  0  0  0  0  0
    8.5589    8.6289   22.8277 H    0  0  0  0  0  0  0  0  0  0  0  0
    9.2392    7.9275   24.3275 H    0  0  0  0  0  0  0  0  0  0  0  0
   10.3197    8.5701   23.0807 H    0  0  0  0  0  0  0  0  0  0  0  0
    9.1171   13.0042   25.4078 H    0  0  0  0  0  0  0  0  0  0  0  0
    7.7573   14.0590   25.6058 H    0  0  0  0  0  0  0  0  0  0  0  0
   10.0064   15.0753   25.0709 H    0  0  0  0  0  0  0  0  0  0  0  0
    9.4885   16.4961   24.2252 H    0  0  0  0  0  0  0  0  0  0  0  0
   11.8698   14.6690   23.5673 H    0  0  0  0  0  0  0  0  0  0  0  0
   11.9453   16.3103   24.1935 H    0  0  0  0  0  0  0  0  0  0  0  0
   12.4295   16.1552   21.6986 H    0  0  0  0  0  0  0  0  0  0  0  0
   11.1057   17.2496   22.0841 H    0  0  0  0  0  0  0  0  0  0  0  0
   10.8367   14.3236   21.2035 H    0  0  0  0  0  0  0  0  0  0  0  0
   11.0207   13.9988   19.0974 H    0  0  0  0  0  0  0  0  0  0  0  0
   10.9116   15.2396   17.8671 H    0  0  0  0  0  0  0  0  0  0  0  0
    8.3947   14.7301   21.0865 H    0  0  0  0  0  0  0  0  0  0  0  0
    8.5747   16.2945   21.8165 H    0  0  0  0  0  0  0  0  0  0  0  0
    5.6275   13.2226   25.9862 H    0  0  0  0  0  0  0  0  0  0  0  0
    3.5721    9.6754   27.8732 H    0  0  0  0  0  0  0  0  0  0  0  0
 10 13  1  0  0  0  0
  9 10  2  0  0  0  0
  8  9  1  0  0  0  0
  7  8  2  0  0  0  0
  6  7  1  0  0  0  0
  5  6  2  0  0  0  0
  4  5  1  0  0  0  0
  3  4  2  0  0  0  0
  2  3  1  0  0  0  0
  1  2  1  0  0  0  0
 31  1  1  0  0  0  0
 32  1  1  0  0  0  0
 33  1  1  0  0  0  0
 34  5  1  0  0  0  0
 27  6  1  0  0  0  0
 35  8  1  0  0  0  0
 36  9  1  0  0  0  0
 11 10  1  0  0  0  0
 12 11  1  0  0  0  0
 37 12  1  0  0  0  0
 38 12  1  0  0  0  0
 39 12  1  0  0  0  0
 14 13  1  0  0  0  0
 26 13  2  0  0  0  0
 15 14  1  0  0  0  0
 40 14  1  0  0  0  0
 41 14  1  0  0  0  0
 16 15  2  0  0  0  0
 17 15  1  0  0  0  0
 18 17  1  0  0  0  0
 19 18  1  0  0  0  0
 42 18  1  0  0  0  0
 43 18  1  0  0  0  0
 20 19  1  0  0  0  0
 44 19  1  0  0  0  0
 45 19  1  0  0  0  0
 21 20  1  0  0  0  0
 46 20  1  0  0  0  0
 47 20  1  0  0  0  0
 22 21  1  0  0  0  0
 25 21  1  0  0  0  0
 48 21  1  0  0  0  0
 23 22  1  0  0  0  0
 24 22  2  0  0  0  0
 49 23  1  0  0  0  0
 50 23  1  0  0  0  0
 51 25  1  0  0  0  0
 52 25  1  0  0  0  0
 53 26  1  0  0  0  0
 28 27  2  0  0  0  0
 54 27  1  0  0  0  0
 29 28  1  0  0  0  0
 30 29  3  0  0  0  0
 25 17  1  0  0  0  0
 26  7  1  0  0  0  0
 28  3  1  0  0  0  0
M  END
>  <FittedScore>
-34.96

$$$$
