A71EV2A-x7151a_best-RMSD
  FITTED

 64 67     0  0  0  0  0  0  0999 V2000
    9.2072    9.3378   23.5925 C    0  0  0  0  0  0  0  0  0  0  0  0
    9.0526   11.1502   23.7537 S    0  0  0  0  0  0  0  0  0  0  0  0
    7.6528   11.4315   24.8407 C    0  0  0  0  0  0  0  0  0  0  0  0
    7.2508   10.3938   25.6263 N    0  0  0  0  0  0  0  0  0  0  0  0
    6.2254   10.5934   26.4939 C    0  0  0  0  0  0  0  0  0  0  0  0
    5.6017   11.7859   26.6837 N    0  0  0  0  0  0  0  0  0  0  0  0
    6.0014   12.8415   25.9115 C    0  0  0  0  0  0  0  0  0  0  0  0
    5.4098   14.0599   26.1845 N    0  0  0  0  0  0  0  0  0  0  0  0
    4.1439   14.4362   25.5164 C    0  0  0  0  0  0  0  0  0  0  0  0
    4.1533   15.9404   25.1414 C    0  0  0  0  0  0  0  0  0  0  0  0
    4.7152   16.8692   26.2174 C    0  0  0  0  0  0  0  0  0  0  0  0
    4.4433   18.2527   26.2102 C    0  0  0  0  0  0  0  0  0  0  0  0
    5.0000   19.0917   27.1292 N    0  0  0  0  0  0  0  0  0  0  0  0
    5.8571   18.5585   28.0535 C    0  0  0  0  0  0  0  0  0  0  0  0
    6.5470   19.5411   29.0225 C    0  0  0  0  0  0  0  0  0  0  0  0
    7.9657   19.9608   28.5439 C    0  0  0  0  0  0  0  0  0  0  0  0
    6.5893   19.0765   30.5047 C    0  0  0  0  0  0  0  0  0  0  0  0
    6.1522   17.2203   28.1287 N    0  0  0  0  0  0  0  0  0  0  0  0
    5.5796   16.3729   27.2219 C    0  0  0  0  0  0  0  0  0  0  0  0
    5.8792   14.8706   27.3451 C    0  0  0  0  0  0  0  0  0  0  0  0
    6.9953   12.6874   24.8983 C    0  0  0  0  0  0  0  0  0  0  0  0
    7.3749   13.8269   23.9291 C    0  0  0  0  0  0  0  0  0  0  0  0
    8.5315   14.6989   24.4103 C    0  0  0  0  0  0  0  0  0  0  0  0
    8.8729   14.6473   25.5823 O    0  0  0  0  0  0  0  0  0  0  0  0
    9.2095   15.4930   23.5163 N    0  0  0  0  0  0  0  0  0  0  0  0
   10.4156   16.2816   23.9217 C    0  0  0  0  0  0  0  0  0  0  0  0
   11.6737   15.7758   23.1919 C    0  0  0  0  0  0  0  0  0  0  0  0
   11.5130   15.9451   21.6678 C    0  0  0  0  0  0  0  0  0  0  0  0
   10.2162   15.2432   21.1602 C    0  0  0  0  0  0  0  0  0  0  0  0
   10.0585   15.5410   19.6661 C    0  0  0  0  0  0  0  0  0  0  0  0
   10.6669   14.6959   18.8180 N    0  0  0  0  0  0  0  0  0  0  0  0
    9.4209   16.4670   19.2154 O    0  0  0  0  0  0  0  0  0  0  0  0
    8.9700   15.6393   22.0326 C    0  0  0  0  0  0  0  0  0  0  0  0
    9.9851    9.1059   22.8648 H    0  0  0  0  0  0  0  0  0  0  0  0
    8.2600    8.9150   23.2508 H    0  0  0  0  0  0  0  0  0  0  0  0
    9.4839    8.9068   24.5543 H    0  0  0  0  0  0  0  0  0  0  0  0
    5.8920    9.7467   27.0876 H    0  0  0  0  0  0  0  0  0  0  0  0
    3.2963   14.2303   26.1752 H    0  0  0  0  0  0  0  0  0  0  0  0
    3.9816   13.8494   24.6085 H    0  0  0  0  0  0  0  0  0  0  0  0
    3.1343   16.2407   24.8820 H    0  0  0  0  0  0  0  0  0  0  0  0
    4.7605   16.0718   24.2421 H    0  0  0  0  0  0  0  0  0  0  0  0
    3.7869   18.6732   25.4516 H    0  0  0  0  0  0  0  0  0  0  0  0
    5.9597   20.4675   29.0377 H    0  0  0  0  0  0  0  0  0  0  0  0
    8.6446   19.1040   28.5264 H    0  0  0  0  0  0  0  0  0  0  0  0
    8.3922   20.7339   29.1913 H    0  0  0  0  0  0  0  0  0  0  0  0
    7.9248   20.3659   27.5293 H    0  0  0  0  0  0  0  0  0  0  0  0
    7.2117   18.1850   30.6274 H    0  0  0  0  0  0  0  0  0  0  0  0
    5.5801   18.8374   30.8527 H    0  0  0  0  0  0  0  0  0  0  0  0
    6.9827   19.8619   31.1571 H    0  0  0  0  0  0  0  0  0  0  0  0
    5.4155   14.5046   28.2651 H    0  0  0  0  0  0  0  0  0  0  0  0
    6.9560   14.7438   27.4924 H    0  0  0  0  0  0  0  0  0  0  0  0
    6.5257   14.4762   23.7262 H    0  0  0  0  0  0  0  0  0  0  0  0
    7.5826   13.3795   22.9564 H    0  0  0  0  0  0  0  0  0  0  0  0
   10.6190   16.2578   24.9944 H    0  0  0  0  0  0  0  0  0  0  0  0
   10.2449   17.3460   23.7157 H    0  0  0  0  0  0  0  0  0  0  0  0
   11.8623   14.7279   23.4407 H    0  0  0  0  0  0  0  0  0  0  0  0
   12.5421   16.3414   23.5354 H    0  0  0  0  0  0  0  0  0  0  0  0
   12.3918   15.5245   21.1734 H    0  0  0  0  0  0  0  0  0  0  0  0
   11.4909   17.0096   21.4178 H    0  0  0  0  0  0  0  0  0  0  0  0
   10.3438   14.1595   21.2970 H    0  0  0  0  0  0  0  0  0  0  0  0
   10.6141   14.8653   17.8164 H    0  0  0  0  0  0  0  0  0  0  0  0
   11.0046   13.7969   19.1532 H    0  0  0  0  0  0  0  0  0  0  0  0
    8.1078   15.0900   21.6662 H    0  0  0  0  0  0  0  0  0  0  0  0
    8.7151   16.6849   21.8404 H    0  0  0  0  0  0  0  0  0  0  0  0
 21 22  1  0  0  0  0
  7 21  2  0  0  0  0
  6  7  1  0  0  0  0
  5  6  2  0  0  0  0
  4  5  1  0  0  0  0
  3  4  2  0  0  0  0
  2  3  1  0  0  0  0
  1  2  1  0  0  0  0
 34  1  1  0  0  0  0
 35  1  1  0  0  0  0
 36  1  1  0  0  0  0
 37  5  1  0  0  0  0
  8  7  1  0  0  0  0
  9  8  1  0  0  0  0
 10  9  1  0  0  0  0
 38  9  1  0  0  0  0
 39  9  1  0  0  0  0
 11 10  1  0  0  0  0
 40 10  1  0  0  0  0
 41 10  1  0  0  0  0
 12 11  2  0  0  0  0
 13 12  1  0  0  0  0
 42 12  1  0  0  0  0
 14 13  2  0  0  0  0
 15 14  1  0  0  0  0
 18 14  1  0  0  0  0
 16 15  1  0  0  0  0
 17 15  1  0  0  0  0
 43 15  1  0  0  0  0
 44 16  1  0  0  0  0
 45 16  1  0  0  0  0
 46 16  1  0  0  0  0
 47 17  1  0  0  0  0
 48 17  1  0  0  0  0
 49 17  1  0  0  0  0
 19 18  2  0  0  0  0
 20 19  1  0  0  0  0
 50 20  1  0  0  0  0
 51 20  1  0  0  0  0
 23 22  1  0  0  0  0
 52 22  1  0  0  0  0
 53 22  1  0  0  0  0
 24 23  2  0  0  0  0
 25 23  1  0  0  0  0
 26 25  1  0  0  0  0
 27 26  1  0  0  0  0
 54 26  1  0  0  0  0
 55 26  1  0  0  0  0
 28 27  1  0  0  0  0
 56 27  1  0  0  0  0
 57 27  1  0  0  0  0
 29 28  1  0  0  0  0
 58 28  1  0  0  0  0
 59 28  1  0  0  0  0
 30 29  1  0  0  0  0
 33 29  1  0  0  0  0
 60 29  1  0  0  0  0
 31 30  1  0  0  0  0
 32 30  2  0  0  0  0
 61 31  1  0  0  0  0
 62 31  1  0  0  0  0
 63 33  1  0  0  0  0
 64 33  1  0  0  0  0
 19 11  1  0  0  0  0
 20  8  1  0  0  0  0
 21  3  1  0  0  0  0
 33 25  1  0  0  0  0
M  END
>  <FittedScore>
-29.05

$$$$
