A71EV2A-x4777a_best-RMSD
  FITTED

 41 42     0  0  0  0  0  0  0999 V2000
    9.4668   16.4994   19.2019 O    0  0  0  0  0  0  0  0  0  0  0  0
   10.1978   15.6821   19.7230 C    0  0  0  0  0  0  0  0  0  0  0  0
   10.8128   14.7520   18.9596 N    0  0  0  0  0  0  0  0  0  0  0  0
   10.1984   15.4641   21.2386 C    0  0  0  0  0  0  0  0  0  0  0  0
   11.8848   15.5657   21.9582 S    0  0  0  0  0  0  0  0  0  0  0  0
   11.5920   14.8297   23.6043 C    0  0  0  0  0  0  0  0  0  0  0  0
   10.7374   13.5458   23.5407 C    0  0  0  0  0  0  0  0  0  0  0  0
    9.3541   14.2127   21.6088 C    0  0  0  0  0  0  0  0  0  0  0  0
    9.3495   13.8092   23.0466 N    0  0  0  0  0  0  0  0  0  0  0  0
    8.1774   13.4994   23.6951 C    0  0  0  0  0  0  0  0  0  0  0  0
    7.1642   13.2224   23.0712 O    0  0  0  0  0  0  0  0  0  0  0  0
    8.1121   13.3421   25.2220 C    0  0  0  0  0  0  0  0  0  0  0  0
    7.4166   12.0398   25.6545 C    0  0  0  0  0  0  0  0  0  0  0  0
    7.7995   10.7720   25.1454 C    0  0  0  0  0  0  0  0  0  0  0  0
    8.9268   10.6806   24.3214 O    0  0  0  0  0  0  0  0  0  0  0  0
    9.3616    9.5249   23.5642 C    0  0  0  0  0  0  0  0  0  0  0  0
    6.3352   12.1312   26.5515 C    0  0  0  0  0  0  0  0  0  0  0  0
    5.5996   10.9959   26.9372 C    0  0  0  0  0  0  0  0  0  0  0  0
    4.4465   11.1388   27.9461 C    0  0  0  0  0  0  0  0  0  0  0  0
    4.8556   11.7378   29.0779 F    0  0  0  0  0  0  0  0  0  0  0  0
    3.8829    9.9643   28.2959 F    0  0  0  0  0  0  0  0  0  0  0  0
    3.4704   11.9192   27.4521 F    0  0  0  0  0  0  0  0  0  0  0  0
    5.9507    9.7553   26.3743 C    0  0  0  0  0  0  0  0  0  0  0  0
    7.0297    9.6455   25.4886 C    0  0  0  0  0  0  0  0  0  0  0  0
   11.0924   13.8660   19.3739 H    0  0  0  0  0  0  0  0  0  0  0  0
   10.8177   14.8596   17.9511 H    0  0  0  0  0  0  0  0  0  0  0  0
    9.6814   16.3138   21.6938 H    0  0  0  0  0  0  0  0  0  0  0  0
   12.5620   14.6175   24.0577 H    0  0  0  0  0  0  0  0  0  0  0  0
   11.0993   15.5775   24.2300 H    0  0  0  0  0  0  0  0  0  0  0  0
   11.2236   12.8261   22.8748 H    0  0  0  0  0  0  0  0  0  0  0  0
   10.7689   13.0481   24.5087 H    0  0  0  0  0  0  0  0  0  0  0  0
    9.6905   13.3420   21.0412 H    0  0  0  0  0  0  0  0  0  0  0  0
    8.3435   14.4047   21.2401 H    0  0  0  0  0  0  0  0  0  0  0  0
    9.0621   13.4021   25.7485 H    0  0  0  0  0  0  0  0  0  0  0  0
    7.5517   14.2068   25.5896 H    0  0  0  0  0  0  0  0  0  0  0  0
    8.6112    9.2298   22.8278 H    0  0  0  0  0  0  0  0  0  0  0  0
    9.5884    8.7256   24.2676 H    0  0  0  0  0  0  0  0  0  0  0  0
   10.2742    9.7444   23.0084 H    0  0  0  0  0  0  0  0  0  0  0  0
    6.0579   13.1043   26.9557 H    0  0  0  0  0  0  0  0  0  0  0  0
    5.3876    8.8567   26.6241 H    0  0  0  0  0  0  0  0  0  0  0  0
    7.2737    8.6627   25.0968 H    0  0  0  0  0  0  0  0  0  0  0  0
  9 10  1  0  0  0  0
  7  9  1  0  0  0  0
  6  7  1  0  0  0  0
  5  6  1  0  0  0  0
  4  5  1  0  0  0  0
  2  4  1  0  0  0  0
  1  2  2  0  0  0  0
  3  2  1  0  0  0  0
 25  3  1  0  0  0  0
 26  3  1  0  0  0  0
 27  4  1  0  0  0  0
 28  6  1  0  0  0  0
 29  6  1  0  0  0  0
 30  7  1  0  0  0  0
 31  7  1  0  0  0  0
  8  4  1  0  0  0  0
 32  8  1  0  0  0  0
 33  8  1  0  0  0  0
 11 10  2  0  0  0  0
 12 10  1  0  0  0  0
 34 12  1  0  0  0  0
 35 12  1  0  0  0  0
 13 12  1  0  0  0  0
 14 13  1  0  0  0  0
 24 14  2  0  0  0  0
 15 14  1  0  0  0  0
 16 15  1  0  0  0  0
 36 16  1  0  0  0  0
 37 16  1  0  0  0  0
 38 16  1  0  0  0  0
 17 13  2  0  0  0  0
 39 17  1  0  0  0  0
 18 17  1  0  0  0  0
 19 18  1  0  0  0  0
 20 19  1  0  0  0  0
 21 19  1  0  0  0  0
 22 19  1  0  0  0  0
 23 18  2  0  0  0  0
 40 23  1  0  0  0  0
 41 24  1  0  0  0  0
  9  8  1  0  0  0  0
 24 23  1  0  0  0  0
M  END
>  <FittedScore>
-34.12

$$$$
