A71EV2A-x4777a_lowest-energy
  FITTED

 41 42     0  0  0  0  0  0  0999 V2000
    9.3756   16.5020   19.2149 O    0  0  0  0  0  0  0  0  0  0  0  0
   10.1597   15.7389   19.7415 C    0  0  0  0  0  0  0  0  0  0  0  0
   10.8152   14.8233   18.9894 N    0  0  0  0  0  0  0  0  0  0  0  0
   10.1498   15.5216   21.2511 C    0  0  0  0  0  0  0  0  0  0  0  0
   11.8253   15.6536   21.9973 S    0  0  0  0  0  0  0  0  0  0  0  0
   11.5133   14.9364   23.6441 C    0  0  0  0  0  0  0  0  0  0  0  0
   10.6953   13.6306   23.5711 C    0  0  0  0  0  0  0  0  0  0  0  0
    9.3342   14.2488   21.6079 C    0  0  0  0  0  0  0  0  0  0  0  0
    9.3100   13.8701   23.0500 N    0  0  0  0  0  0  0  0  0  0  0  0
    8.1337   13.5652   23.6878 C    0  0  0  0  0  0  0  0  0  0  0  0
    7.1490   13.2486   23.0416 O    0  0  0  0  0  0  0  0  0  0  0  0
    8.0655   13.4197   25.2113 C    0  0  0  0  0  0  0  0  0  0  0  0
    7.4333   12.0854   25.6351 C    0  0  0  0  0  0  0  0  0  0  0  0
    7.8314   10.8347   25.0865 C    0  0  0  0  0  0  0  0  0  0  0  0
    8.8927   10.7857   24.1736 O    0  0  0  0  0  0  0  0  0  0  0  0
    9.4455    9.6204   23.5153 C    0  0  0  0  0  0  0  0  0  0  0  0
    6.3936   12.1290   26.5847 C    0  0  0  0  0  0  0  0  0  0  0  0
    5.7216   10.9618   26.9954 C    0  0  0  0  0  0  0  0  0  0  0  0
    4.6392   11.0427   28.0925 C    0  0  0  0  0  0  0  0  0  0  0  0
    3.7642   12.0261   27.7941 F    0  0  0  0  0  0  0  0  0  0  0  0
    5.1823   11.3545   29.2831 F    0  0  0  0  0  0  0  0  0  0  0  0
    3.9030    9.9233   28.2794 F    0  0  0  0  0  0  0  0  0  0  0  0
    6.0777    9.7468   26.3924 C    0  0  0  0  0  0  0  0  0  0  0  0
    7.1146    9.6814   25.4538 C    0  0  0  0  0  0  0  0  0  0  0  0
   10.8088   14.9135   17.9789 H    0  0  0  0  0  0  0  0  0  0  0  0
   11.1274   13.9523   19.4217 H    0  0  0  0  0  0  0  0  0  0  0  0
    9.6009   16.3581   21.7014 H    0  0  0  0  0  0  0  0  0  0  0  0
   12.4784   14.7606   24.1256 H    0  0  0  0  0  0  0  0  0  0  0  0
   10.9766   15.6779   24.2419 H    0  0  0  0  0  0  0  0  0  0  0  0
   11.2111   12.9177   22.9205 H    0  0  0  0  0  0  0  0  0  0  0  0
   10.7165   13.1325   24.5379 H    0  0  0  0  0  0  0  0  0  0  0  0
    9.7037   13.3828   21.0497 H    0  0  0  0  0  0  0  0  0  0  0  0
    8.3270   14.4255   21.2161 H    0  0  0  0  0  0  0  0  0  0  0  0
    9.0033   13.5487   25.7496 H    0  0  0  0  0  0  0  0  0  0  0  0
    7.4594   14.2595   25.5598 H    0  0  0  0  0  0  0  0  0  0  0  0
    8.7045    9.1146   22.8876 H    0  0  0  0  0  0  0  0  0  0  0  0
    9.8678    8.9320   24.2460 H    0  0  0  0  0  0  0  0  0  0  0  0
   10.2634    9.9493   22.8733 H    0  0  0  0  0  0  0  0  0  0  0  0
    6.0913   13.0839   27.0177 H    0  0  0  0  0  0  0  0  0  0  0  0
    5.5569    8.8262   26.6537 H    0  0  0  0  0  0  0  0  0  0  0  0
    7.3521    8.7162   25.0190 H    0  0  0  0  0  0  0  0  0  0  0  0
  9 10  1  0  0  0  0
  7  9  1  0  0  0  0
  6  7  1  0  0  0  0
  5  6  1  0  0  0  0
  4  5  1  0  0  0  0
  2  4  1  0  0  0  0
  1  2  2  0  0  0  0
  3  2  1  0  0  0  0
 25  3  1  0  0  0  0
 26  3  1  0  0  0  0
 27  4  1  0  0  0  0
 28  6  1  0  0  0  0
 29  6  1  0  0  0  0
 30  7  1  0  0  0  0
 31  7  1  0  0  0  0
  8  4  1  0  0  0  0
 32  8  1  0  0  0  0
 33  8  1  0  0  0  0
 11 10  2  0  0  0  0
 12 10  1  0  0  0  0
 34 12  1  0  0  0  0
 35 12  1  0  0  0  0
 13 12  1  0  0  0  0
 14 13  1  0  0  0  0
 24 14  2  0  0  0  0
 15 14  1  0  0  0  0
 16 15  1  0  0  0  0
 36 16  1  0  0  0  0
 37 16  1  0  0  0  0
 38 16  1  0  0  0  0
 17 13  2  0  0  0  0
 39 17  1  0  0  0  0
 18 17  1  0  0  0  0
 19 18  1  0  0  0  0
 20 19  1  0  0  0  0
 21 19  1  0  0  0  0
 22 19  1  0  0  0  0
 23 18  2  0  0  0  0
 40 23  1  0  0  0  0
 41 24  1  0  0  0  0
  9  8  1  0  0  0  0
 24 23  1  0  0  0  0
M  END
>  <FittedScore>
-34.64

$$$$
