A71EV2A-x5857a_best-RMSD
  FITTED

 50 52     0  0  0  0  0  0  0999 V2000
    9.5380    8.8702   23.3620 C    0  0  0  0  0  0  0  0  0  0  0  0
    9.2215   10.6164   23.7883 S    0  0  0  0  0  0  0  0  0  0  0  0
    7.7763   10.6900   24.8663 C    0  0  0  0  0  0  0  0  0  0  0  0
    7.1937    9.4908   25.3098 C    0  0  0  0  0  0  0  0  0  0  0  0
    6.1292    9.5028   26.2022 C    0  0  0  0  0  0  0  0  0  0  0  0
    5.5595   10.7019   26.5977 C    0  0  0  0  0  0  0  0  0  0  0  0
    6.0160   11.9354   26.0821 C    0  0  0  0  0  0  0  0  0  0  0  0
    5.2043   13.0755   26.2879 C    0  0  0  0  0  0  0  0  0  0  0  0
    4.0550   13.1880   27.0784 C    0  0  0  0  0  0  0  0  0  0  0  0
    3.4838   14.4150   26.8178 C    0  0  0  0  0  0  0  0  0  0  0  0
    4.2540   15.0428   25.8562 C    0  0  0  0  0  0  0  0  0  0  0  0
    3.9196   16.3608   25.1701 C    0  0  0  0  0  0  0  0  0  0  0  0
    4.3102   17.4231   25.8939 F    0  0  0  0  0  0  0  0  0  0  0  0
    4.5464   16.4628   23.9803 F    0  0  0  0  0  0  0  0  0  0  0  0
    2.5861   16.4649   24.9928 F    0  0  0  0  0  0  0  0  0  0  0  0
    5.3262   14.2424   25.5647 O    0  0  0  0  0  0  0  0  0  0  0  0
    7.2146   11.9294   25.2846 C    0  0  0  0  0  0  0  0  0  0  0  0
    7.9848   13.2320   24.9494 C    0  0  0  0  0  0  0  0  0  0  0  0
    7.8173   13.7442   23.5036 C    0  0  0  0  0  0  0  0  0  0  0  0
    7.0284   13.1842   22.7594 O    0  0  0  0  0  0  0  0  0  0  0  0
    8.6462   14.7587   23.0645 N    0  0  0  0  0  0  0  0  0  0  0  0
    9.4934   15.6651   23.9208 C    0  0  0  0  0  0  0  0  0  0  0  0
   10.9980   15.6570   23.5219 C    0  0  0  0  0  0  0  0  0  0  0  0
   11.1719   16.0075   22.0186 C    0  0  0  0  0  0  0  0  0  0  0  0
   10.2294   15.1778   21.0961 C    0  0  0  0  0  0  0  0  0  0  0  0
   10.3020   15.6902   19.6553 C    0  0  0  0  0  0  0  0  0  0  0  0
   10.9759   14.9121   18.7877 N    0  0  0  0  0  0  0  0  0  0  0  0
    9.6453   16.6286   19.2386 O    0  0  0  0  0  0  0  0  0  0  0  0
    8.7598   15.1582   21.6264 C    0  0  0  0  0  0  0  0  0  0  0  0
    8.6726    8.4233   22.8640 H    0  0  0  0  0  0  0  0  0  0  0  0
    9.7804    8.3022   24.2628 H    0  0  0  0  0  0  0  0  0  0  0  0
   10.3959    8.8195   22.6924 H    0  0  0  0  0  0  0  0  0  0  0  0
    7.5655    8.5213   25.0158 H    0  0  0  0  0  0  0  0  0  0  0  0
    5.7297    8.5645   26.5778 H    0  0  0  0  0  0  0  0  0  0  0  0
    4.7089   10.6328   27.2670 H    0  0  0  0  0  0  0  0  0  0  0  0
    3.6368   12.4494   27.7553 H    0  0  0  0  0  0  0  0  0  0  0  0
    2.5709   14.7998   27.2595 H    0  0  0  0  0  0  0  0  0  0  0  0
    9.0460   13.0664   25.1532 H    0  0  0  0  0  0  0  0  0  0  0  0
    7.7380   14.0164   25.6634 H    0  0  0  0  0  0  0  0  0  0  0  0
    9.4260   15.4442   24.9841 H    0  0  0  0  0  0  0  0  0  0  0  0
    9.1033   16.6851   23.8406 H    0  0  0  0  0  0  0  0  0  0  0  0
   11.4387   14.6811   23.7470 H    0  0  0  0  0  0  0  0  0  0  0  0
   11.5610   16.3717   24.1268 H    0  0  0  0  0  0  0  0  0  0  0  0
   12.2084   15.8143   21.7324 H    0  0  0  0  0  0  0  0  0  0  0  0
   10.9956   17.0777   21.8676 H    0  0  0  0  0  0  0  0  0  0  0  0
   10.5913   14.1404   21.1225 H    0  0  0  0  0  0  0  0  0  0  0  0
   10.9881   15.1531   17.8047 H    0  0  0  0  0  0  0  0  0  0  0  0
   11.2817   13.9804   19.0725 H    0  0  0  0  0  0  0  0  0  0  0  0
    8.1909   14.4919   20.9740 H    0  0  0  0  0  0  0  0  0  0  0  0
    8.3017   16.1441   21.5021 H    0  0  0  0  0  0  0  0  0  0  0  0
 18 19  1  0  0  0  0
 17 18  1  0  0  0  0
  7 17  2  0  0  0  0
  6  7  1  0  0  0  0
  5  6  2  0  0  0  0
  4  5  1  0  0  0  0
  3  4  2  0  0  0  0
  2  3  1  0  0  0  0
  1  2  1  0  0  0  0
 30  1  1  0  0  0  0
 31  1  1  0  0  0  0
 32  1  1  0  0  0  0
 33  4  1  0  0  0  0
 34  5  1  0  0  0  0
 35  6  1  0  0  0  0
  8  7  1  0  0  0  0
  9  8  2  0  0  0  0
 10  9  1  0  0  0  0
 36  9  1  0  0  0  0
 11 10  2  0  0  0  0
 37 10  1  0  0  0  0
 12 11  1  0  0  0  0
 16 11  1  0  0  0  0
 13 12  1  0  0  0  0
 14 12  1  0  0  0  0
 15 12  1  0  0  0  0
 38 18  1  0  0  0  0
 39 18  1  0  0  0  0
 20 19  2  0  0  0  0
 21 19  1  0  0  0  0
 22 21  1  0  0  0  0
 23 22  1  0  0  0  0
 40 22  1  0  0  0  0
 41 22  1  0  0  0  0
 24 23  1  0  0  0  0
 42 23  1  0  0  0  0
 43 23  1  0  0  0  0
 25 24  1  0  0  0  0
 44 24  1  0  0  0  0
 45 24  1  0  0  0  0
 26 25  1  0  0  0  0
 29 25  1  0  0  0  0
 46 25  1  0  0  0  0
 27 26  1  0  0  0  0
 28 26  2  0  0  0  0
 47 27  1  0  0  0  0
 48 27  1  0  0  0  0
 49 29  1  0  0  0  0
 50 29  1  0  0  0  0
 16  8  1  0  0  0  0
 17  3  1  0  0  0  0
 29 21  1  0  0  0  0
M  END
>  <FittedScore>
-32.72

$$$$
