A71EV2A-x5857a_lowest-energy
  FITTED

 50 52     0  0  0  0  0  0  0999 V2000
    9.2231    8.4248   23.5207 C    0  0  0  0  0  0  0  0  0  0  0  0
    9.2930   10.2019   23.8807 S    0  0  0  0  0  0  0  0  0  0  0  0
    7.9074   10.6796   24.9449 C    0  0  0  0  0  0  0  0  0  0  0  0
    7.0997    9.6854   25.5219 C    0  0  0  0  0  0  0  0  0  0  0  0
    6.0254   10.0197   26.3382 C    0  0  0  0  0  0  0  0  0  0  0  0
    5.6877   11.3572   26.5404 C    0  0  0  0  0  0  0  0  0  0  0  0
    6.4238   12.4164   25.9519 C    0  0  0  0  0  0  0  0  0  0  0  0
    5.9217   13.7531   26.0971 C    0  0  0  0  0  0  0  0  0  0  0  0
    4.7590   14.1815   26.7536 C    0  0  0  0  0  0  0  0  0  0  0  0
    4.6201   15.5462   26.5792 C    0  0  0  0  0  0  0  0  0  0  0  0
    5.6854   15.9866   25.8161 C    0  0  0  0  0  0  0  0  0  0  0  0
    5.9739   17.4037   25.3182 C    0  0  0  0  0  0  0  0  0  0  0  0
    4.8775   18.1860   25.3369 F    0  0  0  0  0  0  0  0  0  0  0  0
    6.9172   18.0111   26.0629 F    0  0  0  0  0  0  0  0  0  0  0  0
    6.4218   17.3684   24.0487 F    0  0  0  0  0  0  0  0  0  0  0  0
    6.4695   14.9000   25.5458 O    0  0  0  0  0  0  0  0  0  0  0  0
    7.6119   12.0545   25.2113 C    0  0  0  0  0  0  0  0  0  0  0  0
    8.5960   13.1272   24.6874 C    0  0  0  0  0  0  0  0  0  0  0  0
    8.1572   13.7609   23.3557 C    0  0  0  0  0  0  0  0  0  0  0  0
    7.3643   13.1658   22.6401 O    0  0  0  0  0  0  0  0  0  0  0  0
    8.7522   14.9321   22.9438 N    0  0  0  0  0  0  0  0  0  0  0  0
    9.5665   15.8808   23.7795 C    0  0  0  0  0  0  0  0  0  0  0  0
   11.0671   15.8648   23.3824 C    0  0  0  0  0  0  0  0  0  0  0  0
   11.2485   16.1893   21.8730 C    0  0  0  0  0  0  0  0  0  0  0  0
   10.2804   15.3409   20.9852 C    0  0  0  0  0  0  0  0  0  0  0  0
   10.3864   15.7580   19.5164 C    0  0  0  0  0  0  0  0  0  0  0  0
   10.9482   14.8463   18.7067 N    0  0  0  0  0  0  0  0  0  0  0  0
    9.9283   16.7845   19.0514 O    0  0  0  0  0  0  0  0  0  0  0  0
    8.8079   15.3501   21.5078 C    0  0  0  0  0  0  0  0  0  0  0  0
    8.2398    8.1343   23.1471 H    0  0  0  0  0  0  0  0  0  0  0  0
    9.4658    7.8575   24.4221 H    0  0  0  0  0  0  0  0  0  0  0  0
    9.9677    8.1925   22.7594 H    0  0  0  0  0  0  0  0  0  0  0  0
    7.3079    8.6335   25.3779 H    0  0  0  0  0  0  0  0  0  0  0  0
    5.4333    9.2373   26.8020 H    0  0  0  0  0  0  0  0  0  0  0  0
    4.8213   11.5353   27.1658 H    0  0  0  0  0  0  0  0  0  0  0  0
    4.0429   13.5770   27.2993 H    0  0  0  0  0  0  0  0  0  0  0  0
    3.8050   16.1564   26.9534 H    0  0  0  0  0  0  0  0  0  0  0  0
    9.6217   12.7756   24.5745 H    0  0  0  0  0  0  0  0  0  0  0  0
    8.7195   13.8347   25.5046 H    0  0  0  0  0  0  0  0  0  0  0  0
    9.4715   15.7245   24.8513 H    0  0  0  0  0  0  0  0  0  0  0  0
    9.1738   16.8955   23.6472 H    0  0  0  0  0  0  0  0  0  0  0  0
   11.4955   14.8838   23.6015 H    0  0  0  0  0  0  0  0  0  0  0  0
   11.6207   16.5892   23.9780 H    0  0  0  0  0  0  0  0  0  0  0  0
   12.2841   15.9851   21.5806 H    0  0  0  0  0  0  0  0  0  0  0  0
   11.0822   17.2572   21.6991 H    0  0  0  0  0  0  0  0  0  0  0  0
   10.6091   14.2980   21.0850 H    0  0  0  0  0  0  0  0  0  0  0  0
   10.9975   15.0357   17.7137 H    0  0  0  0  0  0  0  0  0  0  0  0
   11.2267   13.9253   19.0422 H    0  0  0  0  0  0  0  0  0  0  0  0
    8.2146   14.7052   20.8585 H    0  0  0  0  0  0  0  0  0  0  0  0
    8.3677   16.3453   21.4012 H    0  0  0  0  0  0  0  0  0  0  0  0
 18 19  1  0  0  0  0
 17 18  1  0  0  0  0
  7 17  2  0  0  0  0
  6  7  1  0  0  0  0
  5  6  2  0  0  0  0
  4  5  1  0  0  0  0
  3  4  2  0  0  0  0
  2  3  1  0  0  0  0
  1  2  1  0  0  0  0
 30  1  1  0  0  0  0
 31  1  1  0  0  0  0
 32  1  1  0  0  0  0
 33  4  1  0  0  0  0
 34  5  1  0  0  0  0
 35  6  1  0  0  0  0
  8  7  1  0  0  0  0
  9  8  2  0  0  0  0
 10  9  1  0  0  0  0
 36  9  1  0  0  0  0
 11 10  2  0  0  0  0
 37 10  1  0  0  0  0
 12 11  1  0  0  0  0
 16 11  1  0  0  0  0
 13 12  1  0  0  0  0
 14 12  1  0  0  0  0
 15 12  1  0  0  0  0
 38 18  1  0  0  0  0
 39 18  1  0  0  0  0
 20 19  2  0  0  0  0
 21 19  1  0  0  0  0
 22 21  1  0  0  0  0
 23 22  1  0  0  0  0
 40 22  1  0  0  0  0
 41 22  1  0  0  0  0
 24 23  1  0  0  0  0
 42 23  1  0  0  0  0
 43 23  1  0  0  0  0
 25 24  1  0  0  0  0
 44 24  1  0  0  0  0
 45 24  1  0  0  0  0
 26 25  1  0  0  0  0
 29 25  1  0  0  0  0
 46 25  1  0  0  0  0
 27 26  1  0  0  0  0
 28 26  2  0  0  0  0
 47 27  1  0  0  0  0
 48 27  1  0  0  0  0
 49 29  1  0  0  0  0
 50 29  1  0  0  0  0
 16  8  1  0  0  0  0
 17  3  1  0  0  0  0
 29 21  1  0  0  0  0
M  END
>  <FittedScore>
-32.59

$$$$
