A71EV2A-x3556a_best-RMSD
  FITTED

 39 41     0  0  0  0  0  0  0999 V2000
   10.0954   16.5219   19.3270 O    0  0  0  0  0  0  0  0  0  0  0  0
   10.7610   15.5512   19.6350 C    0  0  0  0  0  0  0  0  0  0  0  0
   11.1191   14.6857   18.6734 N    0  0  0  0  0  0  0  0  0  0  0  0
   10.9790   15.0611   21.0696 C    0  0  0  0  0  0  0  0  0  0  0  0
   11.8006   15.9749   21.9908 C    0  0  0  0  0  0  0  0  0  0  0  0
   11.3619   15.5144   23.3903 C    0  0  0  0  0  0  0  0  0  0  0  0
    9.6761   14.8067   21.8507 C    0  0  0  0  0  0  0  0  0  0  0  0
   10.0015   14.9283   23.2867 N    0  0  0  0  0  0  0  0  0  0  0  0
    9.1892   14.6416   24.3558 C    0  0  0  0  0  0  0  0  0  0  0  0
    9.6206   14.7003   25.4932 O    0  0  0  0  0  0  0  0  0  0  0  0
    7.7008   14.3206   24.1378 C    0  0  0  0  0  0  0  0  0  0  0  0
    7.2550   13.1126   24.9504 C    0  0  0  0  0  0  0  0  0  0  0  0
    6.3574   13.1628   25.9605 C    0  0  0  0  0  0  0  0  0  0  0  0
    5.9154   12.0879   26.6415 C    0  0  0  0  0  0  0  0  0  0  0  0
    6.3120   10.8270   26.3909 C    0  0  0  0  0  0  0  0  0  0  0  0
    7.3259   10.6431   25.3121 C    0  0  0  0  0  0  0  0  0  0  0  0
    7.7979   11.7496   24.6449 C    0  0  0  0  0  0  0  0  0  0  0  0
    8.7881   11.3069   23.8066 C    0  0  0  0  0  0  0  0  0  0  0  0
    7.9540    9.3977   24.8438 N    0  0  0  0  0  0  0  0  0  0  0  0
    8.8625    9.9551   23.9815 N    0  0  0  0  0  0  0  0  0  0  0  0
    9.6736    9.0569   23.1624 C    0  0  0  0  0  0  0  0  0  0  0  0
   11.4236   13.7412   18.9092 H    0  0  0  0  0  0  0  0  0  0  0  0
   10.9869   14.9341   17.6979 H    0  0  0  0  0  0  0  0  0  0  0  0
   11.5255   14.1089   21.0389 H    0  0  0  0  0  0  0  0  0  0  0  0
   12.8783   15.8364   21.8445 H    0  0  0  0  0  0  0  0  0  0  0  0
   11.5634   17.0318   21.8332 H    0  0  0  0  0  0  0  0  0  0  0  0
   12.0602   14.7720   23.7920 H    0  0  0  0  0  0  0  0  0  0  0  0
   11.3561   16.3715   24.0701 H    0  0  0  0  0  0  0  0  0  0  0  0
    9.3028   13.8033   21.6159 H    0  0  0  0  0  0  0  0  0  0  0  0
    8.9069   15.5367   21.5855 H    0  0  0  0  0  0  0  0  0  0  0  0
    7.1299   15.2091   24.4170 H    0  0  0  0  0  0  0  0  0  0  0  0
    7.4410   14.1230   23.0984 H    0  0  0  0  0  0  0  0  0  0  0  0
    5.9522   14.1329   26.2441 H    0  0  0  0  0  0  0  0  0  0  0  0
    5.1899   12.2435   27.4371 H    0  0  0  0  0  0  0  0  0  0  0  0
    5.9076   10.0008   26.9727 H    0  0  0  0  0  0  0  0  0  0  0  0
    9.4046   11.8991   23.1349 H    0  0  0  0  0  0  0  0  0  0  0  0
    9.1204    8.7338   22.2777 H    0  0  0  0  0  0  0  0  0  0  0  0
    9.9771    8.1581   23.7069 H    0  0  0  0  0  0  0  0  0  0  0  0
   10.5889    9.5426   22.8142 H    0  0  0  0  0  0  0  0  0  0  0  0
  8  9  1  0  0  0  0
  6  8  1  0  0  0  0
  5  6  1  0  0  0  0
  4  5  1  0  0  0  0
  2  4  1  0  0  0  0
  1  2  2  0  0  0  0
  3  2  1  0  0  0  0
 22  3  1  0  0  0  0
 23  3  1  0  0  0  0
 24  4  1  0  0  0  0
 25  5  1  0  0  0  0
 26  5  1  0  0  0  0
 27  6  1  0  0  0  0
 28  6  1  0  0  0  0
  7  4  1  0  0  0  0
 29  7  1  0  0  0  0
 30  7  1  0  0  0  0
 10  9  2  0  0  0  0
 11  9  1  0  0  0  0
 31 11  1  0  0  0  0
 32 11  1  0  0  0  0
 12 11  1  0  0  0  0
 13 12  2  0  0  0  0
 33 13  1  0  0  0  0
 14 13  1  0  0  0  0
 34 14  1  0  0  0  0
 15 14  2  0  0  0  0
 35 15  1  0  0  0  0
 16 15  1  0  0  0  0
 17 12  1  0  0  0  0
 18 17  2  0  0  0  0
 36 18  1  0  0  0  0
 19 16  2  0  0  0  0
 20 18  1  0  0  0  0
 21 20  1  0  0  0  0
 37 21  1  0  0  0  0
 38 21  1  0  0  0  0
 39 21  1  0  0  0  0
  8  7  1  0  0  0  0
 17 16  1  0  0  0  0
 20 19  1  0  0  0  0
M  END
>  <FittedScore>
-29.75

$$$$
