A71EV2A-x3556a_lowest-energy
  FITTED

 39 41     0  0  0  0  0  0  0999 V2000
   10.0699   16.5664   19.2867 O    0  0  0  0  0  0  0  0  0  0  0  0
   10.6514   15.5540   19.6164 C    0  0  0  0  0  0  0  0  0  0  0  0
   11.0106   14.6656   18.6781 N    0  0  0  0  0  0  0  0  0  0  0  0
   10.8293   15.0805   21.0562 C    0  0  0  0  0  0  0  0  0  0  0  0
   11.7216   15.9649   21.9332 C    0  0  0  0  0  0  0  0  0  0  0  0
   11.3114   15.5307   23.3509 C    0  0  0  0  0  0  0  0  0  0  0  0
    9.5257   14.9609   21.8647 C    0  0  0  0  0  0  0  0  0  0  0  0
    9.9144   15.0249   23.2923 N    0  0  0  0  0  0  0  0  0  0  0  0
    9.1519   14.6980   24.3867 C    0  0  0  0  0  0  0  0  0  0  0  0
    9.6431   14.6943   25.4996 O    0  0  0  0  0  0  0  0  0  0  0  0
    7.6520   14.3968   24.2358 C    0  0  0  0  0  0  0  0  0  0  0  0
    7.2236   13.1449   24.9997 C    0  0  0  0  0  0  0  0  0  0  0  0
    6.3146   13.1449   25.9999 C    0  0  0  0  0  0  0  0  0  0  0  0
    5.8764   12.0407   26.6394 C    0  0  0  0  0  0  0  0  0  0  0  0
    6.2941   10.7966   26.3500 C    0  0  0  0  0  0  0  0  0  0  0  0
    7.3226   10.6642   25.2813 C    0  0  0  0  0  0  0  0  0  0  0  0
    7.7848   11.7975   24.6521 C    0  0  0  0  0  0  0  0  0  0  0  0
    8.7744   11.3901   23.7951 C    0  0  0  0  0  0  0  0  0  0  0  0
    7.9757    9.4391   24.7919 N    0  0  0  0  0  0  0  0  0  0  0  0
    8.8514   10.0312   23.9193 N    0  0  0  0  0  0  0  0  0  0  0  0
    9.7401    9.1644   23.1467 C    0  0  0  0  0  0  0  0  0  0  0  0
   11.2314   13.7045   18.9323 H    0  0  0  0  0  0  0  0  0  0  0  0
   10.9809   14.9270   17.6989 H    0  0  0  0  0  0  0  0  0  0  0  0
   11.2929   14.0831   21.0557 H    0  0  0  0  0  0  0  0  0  0  0  0
   12.7840   15.7959   21.7392 H    0  0  0  0  0  0  0  0  0  0  0  0
   11.5104   17.0268   21.7784 H    0  0  0  0  0  0  0  0  0  0  0  0
   11.9824   14.7452   23.7147 H    0  0  0  0  0  0  0  0  0  0  0  0
   11.3804   16.3826   24.0350 H    0  0  0  0  0  0  0  0  0  0  0  0
    9.0301   14.0178   21.6183 H    0  0  0  0  0  0  0  0  0  0  0  0
    8.8415   15.7871   21.6438 H    0  0  0  0  0  0  0  0  0  0  0  0
    7.1094   15.2746   24.5970 H    0  0  0  0  0  0  0  0  0  0  0  0
    7.3297   14.2700   23.2014 H    0  0  0  0  0  0  0  0  0  0  0  0
    5.8901   14.0957   26.3148 H    0  0  0  0  0  0  0  0  0  0  0  0
    5.1396   12.1586   27.4289 H    0  0  0  0  0  0  0  0  0  0  0  0
    5.8941    9.9466   26.8967 H    0  0  0  0  0  0  0  0  0  0  0  0
    9.3860   12.0101   23.1432 H    0  0  0  0  0  0  0  0  0  0  0  0
    9.2076    8.3150   22.7109 H    0  0  0  0  0  0  0  0  0  0  0  0
   10.5416    8.7702   23.7743 H    0  0  0  0  0  0  0  0  0  0  0  0
   10.2149    9.6966   22.3174 H    0  0  0  0  0  0  0  0  0  0  0  0
  8  9  1  0  0  0  0
  6  8  1  0  0  0  0
  5  6  1  0  0  0  0
  4  5  1  0  0  0  0
  2  4  1  0  0  0  0
  1  2  2  0  0  0  0
  3  2  1  0  0  0  0
 22  3  1  0  0  0  0
 23  3  1  0  0  0  0
 24  4  1  0  0  0  0
 25  5  1  0  0  0  0
 26  5  1  0  0  0  0
 27  6  1  0  0  0  0
 28  6  1  0  0  0  0
  7  4  1  0  0  0  0
 29  7  1  0  0  0  0
 30  7  1  0  0  0  0
 10  9  2  0  0  0  0
 11  9  1  0  0  0  0
 31 11  1  0  0  0  0
 32 11  1  0  0  0  0
 12 11  1  0  0  0  0
 13 12  2  0  0  0  0
 33 13  1  0  0  0  0
 14 13  1  0  0  0  0
 34 14  1  0  0  0  0
 15 14  2  0  0  0  0
 35 15  1  0  0  0  0
 16 15  1  0  0  0  0
 17 12  1  0  0  0  0
 18 17  2  0  0  0  0
 36 18  1  0  0  0  0
 19 16  2  0  0  0  0
 20 18  1  0  0  0  0
 21 20  1  0  0  0  0
 37 21  1  0  0  0  0
 38 21  1  0  0  0  0
 39 21  1  0  0  0  0
  8  7  1  0  0  0  0
 17 16  1  0  0  0  0
 20 19  1  0  0  0  0
M  END
>  <FittedScore>
-30.95

$$$$
