A71EV2A-x5466a_best-RMSD
  FITTED

 39 40     0  0  0  0  0  0  0999 V2000
    9.9992   16.7775   19.0772 O    0  0  0  0  0  0  0  0  0  0  0  0
   10.3805   15.7110   19.5105 C    0  0  0  0  0  0  0  0  0  0  0  0
   10.6961   14.7291   18.6559 N    0  0  0  0  0  0  0  0  0  0  0  0
   10.3673   15.3050   20.9819 C    0  0  0  0  0  0  0  0  0  0  0  0
   11.2764   16.2082   21.8580 C    0  0  0  0  0  0  0  0  0  0  0  0
   11.2628   15.7082   23.3304 C    0  0  0  0  0  0  0  0  0  0  0  0
    9.8237   15.4714   23.8816 C    0  0  0  0  0  0  0  0  0  0  0  0
    8.9261   15.2647   21.5712 C    0  0  0  0  0  0  0  0  0  0  0  0
    8.9177   14.6973   22.9578 N    0  0  0  0  0  0  0  0  0  0  0  0
    8.1242   13.6368   23.3287 C    0  0  0  0  0  0  0  0  0  0  0  0
    7.2770   13.1667   22.5830 O    0  0  0  0  0  0  0  0  0  0  0  0
    8.3709   13.0825   24.5517 O    0  0  0  0  0  0  0  0  0  0  0  0
    7.6708   11.9885   25.0386 C    0  0  0  0  0  0  0  0  0  0  0  0
    7.9447   10.6647   24.6088 C    0  0  0  0  0  0  0  0  0  0  0  0
    9.0836   10.3412   23.6404 C    0  0  0  0  0  0  0  0  0  0  0  0
    7.1332    9.6204   25.0847 C    0  0  0  0  0  0  0  0  0  0  0  0
    6.1118    9.8737   26.0067 C    0  0  0  0  0  0  0  0  0  0  0  0
    6.6499   12.2357   25.9723 C    0  0  0  0  0  0  0  0  0  0  0  0
    5.8723   11.1773   26.4591 C    0  0  0  0  0  0  0  0  0  0  0  0
    4.8153   11.4276   27.4062 C    0  0  0  0  0  0  0  0  0  0  0  0
    3.9514   11.6293   28.1796 C    0  0  0  0  0  0  0  0  0  0  0  0
   10.6124   14.8976   17.6590 H    0  0  0  0  0  0  0  0  0  0  0  0
   10.8487   13.7821   19.0001 H    0  0  0  0  0  0  0  0  0  0  0  0
   10.7686   14.2840   21.0594 H    0  0  0  0  0  0  0  0  0  0  0  0
   12.3031   16.1928   21.4807 H    0  0  0  0  0  0  0  0  0  0  0  0
   10.9371   17.2458   21.8139 H    0  0  0  0  0  0  0  0  0  0  0  0
   11.8453   14.7829   23.4004 H    0  0  0  0  0  0  0  0  0  0  0  0
   11.7696   16.4432   23.9598 H    0  0  0  0  0  0  0  0  0  0  0  0
    9.9325   14.9881   24.8551 H    0  0  0  0  0  0  0  0  0  0  0  0
    9.3532   16.4365   24.0904 H    0  0  0  0  0  0  0  0  0  0  0  0
    8.2928   14.7026   20.8802 H    0  0  0  0  0  0  0  0  0  0  0  0
    8.5034   16.2716   21.5964 H    0  0  0  0  0  0  0  0  0  0  0  0
    9.3246    9.2762   23.6309 H    0  0  0  0  0  0  0  0  0  0  0  0
    9.9967   10.8736   23.9213 H    0  0  0  0  0  0  0  0  0  0  0  0
    8.8181   10.6294   22.6213 H    0  0  0  0  0  0  0  0  0  0  0  0
    7.2977    8.6005   24.7487 H    0  0  0  0  0  0  0  0  0  0  0  0
    5.5075    9.0440   26.3697 H    0  0  0  0  0  0  0  0  0  0  0  0
    6.4569   13.2551   26.2977 H    0  0  0  0  0  0  0  0  0  0  0  0
    3.1697   11.8104   28.8733 H    0  0  0  0  0  0  0  0  0  0  0  0
  9 10  1  0  0  0  0
  7  9  1  0  0  0  0
  6  7  1  0  0  0  0
  5  6  1  0  0  0  0
  4  5  1  0  0  0  0
  2  4  1  0  0  0  0
  1  2  2  0  0  0  0
  3  2  1  0  0  0  0
 22  3  1  0  0  0  0
 23  3  1  0  0  0  0
 24  4  1  0  0  0  0
 25  5  1  0  0  0  0
 26  5  1  0  0  0  0
 27  6  1  0  0  0  0
 28  6  1  0  0  0  0
 29  7  1  0  0  0  0
 30  7  1  0  0  0  0
  8  4  1  0  0  0  0
 31  8  1  0  0  0  0
 32  8  1  0  0  0  0
 11 10  2  0  0  0  0
 12 10  1  0  0  0  0
 13 12  1  0  0  0  0
 14 13  1  0  0  0  0
 15 14  1  0  0  0  0
 33 15  1  0  0  0  0
 34 15  1  0  0  0  0
 35 15  1  0  0  0  0
 16 14  2  0  0  0  0
 36 16  1  0  0  0  0
 17 16  1  0  0  0  0
 37 17  1  0  0  0  0
 18 13  2  0  0  0  0
 38 18  1  0  0  0  0
 19 17  2  0  0  0  0
 20 19  1  0  0  0  0
 21 20  3  0  0  0  0
 39 21  1  0  0  0  0
  9  8  1  0  0  0  0
 19 18  1  0  0  0  0
M  END
>  <FittedScore>
-30.83

$$$$
