A71EV2A-x5466a_lowest-energy
  FITTED

 39 40     0  0  0  0  0  0  0999 V2000
    9.7245   16.6068   18.9965 O    0  0  0  0  0  0  0  0  0  0  0  0
   10.2031   15.5952   19.4739 C    0  0  0  0  0  0  0  0  0  0  0  0
   10.7901   14.6902   18.6749 N    0  0  0  0  0  0  0  0  0  0  0  0
   10.0712   15.1835   20.9400 C    0  0  0  0  0  0  0  0  0  0  0  0
   11.0215   16.0216   21.8415 C    0  0  0  0  0  0  0  0  0  0  0  0
   10.8650   15.6262   23.3346 C    0  0  0  0  0  0  0  0  0  0  0  0
    9.3742   15.6163   23.7790 C    0  0  0  0  0  0  0  0  0  0  0  0
    8.6006   15.2514   21.4520 C    0  0  0  0  0  0  0  0  0  0  0  0
    8.4896   14.7962   22.8732 N    0  0  0  0  0  0  0  0  0  0  0  0
    7.7100   13.7378   23.2687 C    0  0  0  0  0  0  0  0  0  0  0  0
    6.9701   13.1412   22.4934 O    0  0  0  0  0  0  0  0  0  0  0  0
    7.8560   13.3439   24.5634 O    0  0  0  0  0  0  0  0  0  0  0  0
    7.3183   12.1720   25.0680 C    0  0  0  0  0  0  0  0  0  0  0  0
    7.8052   10.8994   24.6773 C    0  0  0  0  0  0  0  0  0  0  0  0
    9.0084   10.7338   23.7406 C    0  0  0  0  0  0  0  0  0  0  0  0
    7.1571    9.7540   25.1694 C    0  0  0  0  0  0  0  0  0  0  0  0
    6.0933    9.8670   26.0739 C    0  0  0  0  0  0  0  0  0  0  0  0
    6.2471   12.2821   25.9722 C    0  0  0  0  0  0  0  0  0  0  0  0
    5.6410   11.1281   26.4855 C    0  0  0  0  0  0  0  0  0  0  0  0
    4.5384   11.2328   27.4098 C    0  0  0  0  0  0  0  0  0  0  0  0
    3.6313   11.3111   28.1597 C    0  0  0  0  0  0  0  0  0  0  0  0
   10.8353   14.8649   17.6749 H    0  0  0  0  0  0  0  0  0  0  0  0
   11.0216   13.7631   19.0342 H    0  0  0  0  0  0  0  0  0  0  0  0
   10.3790   14.1342   21.0422 H    0  0  0  0  0  0  0  0  0  0  0  0
   12.0609   15.8686   21.5335 H    0  0  0  0  0  0  0  0  0  0  0  0
   10.8107   17.0891   21.7251 H    0  0  0  0  0  0  0  0  0  0  0  0
   11.2992   14.6344   23.4969 H    0  0  0  0  0  0  0  0  0  0  0  0
   11.4222   16.3278   23.9586 H    0  0  0  0  0  0  0  0  0  0  0  0
    9.3461   15.2786   24.8173 H    0  0  0  0  0  0  0  0  0  0  0  0
    8.9975   16.6420   23.8059 H    0  0  0  0  0  0  0  0  0  0  0  0
    7.9815   14.6610   20.7736 H    0  0  0  0  0  0  0  0  0  0  0  0
    8.2137   16.2710   21.3662 H    0  0  0  0  0  0  0  0  0  0  0  0
    9.4798    9.7549   23.8543 H    0  0  0  0  0  0  0  0  0  0  0  0
    9.7797   11.4815   23.9526 H    0  0  0  0  0  0  0  0  0  0  0  0
    8.7036   10.8435   22.6979 H    0  0  0  0  0  0  0  0  0  0  0  0
    7.4861    8.7657   24.8619 H    0  0  0  0  0  0  0  0  0  0  0  0
    5.6211    8.9649   26.4552 H    0  0  0  0  0  0  0  0  0  0  0  0
    5.8854   13.2681   26.2615 H    0  0  0  0  0  0  0  0  0  0  0  0
    2.8134   11.3799   28.8312 H    0  0  0  0  0  0  0  0  0  0  0  0
  9 10  1  0  0  0  0
  7  9  1  0  0  0  0
  6  7  1  0  0  0  0
  5  6  1  0  0  0  0
  4  5  1  0  0  0  0
  2  4  1  0  0  0  0
  1  2  2  0  0  0  0
  3  2  1  0  0  0  0
 22  3  1  0  0  0  0
 23  3  1  0  0  0  0
 24  4  1  0  0  0  0
 25  5  1  0  0  0  0
 26  5  1  0  0  0  0
 27  6  1  0  0  0  0
 28  6  1  0  0  0  0
 29  7  1  0  0  0  0
 30  7  1  0  0  0  0
  8  4  1  0  0  0  0
 31  8  1  0  0  0  0
 32  8  1  0  0  0  0
 11 10  2  0  0  0  0
 12 10  1  0  0  0  0
 13 12  1  0  0  0  0
 14 13  1  0  0  0  0
 15 14  1  0  0  0  0
 33 15  1  0  0  0  0
 34 15  1  0  0  0  0
 35 15  1  0  0  0  0
 16 14  2  0  0  0  0
 36 16  1  0  0  0  0
 17 16  1  0  0  0  0
 37 17  1  0  0  0  0
 18 13  2  0  0  0  0
 38 18  1  0  0  0  0
 19 17  2  0  0  0  0
 20 19  1  0  0  0  0
 21 20  3  0  0  0  0
 39 21  1  0  0  0  0
  9  8  1  0  0  0  0
 19 18  1  0  0  0  0
M  END
>  <FittedScore>
-30.52

$$$$
