A71EV2A-x6821a_best-RMSD
  FITTED

 51 52     0  0  0  0  0  0  0999 V2000
    9.2651    8.8285   23.4926 C    0  0  0  0  0  0  0  0  0  0  0  0
    9.1442   10.6224   23.7776 S    0  0  0  0  0  0  0  0  0  0  0  0
    7.7237   10.9440   24.8338 C    0  0  0  0  0  0  0  0  0  0  0  0
    7.1808    9.9064   25.6189 C    0  0  0  0  0  0  0  0  0  0  0  0
    6.1532   10.1526   26.5339 C    0  0  0  0  0  0  0  0  0  0  0  0
    5.6466   11.4437   26.6790 C    0  0  0  0  0  0  0  0  0  0  0  0
    6.1561   12.4796   25.8934 C    0  0  0  0  0  0  0  0  0  0  0  0
    7.1703   12.2542   24.9284 C    0  0  0  0  0  0  0  0  0  0  0  0
    7.6640   13.3968   23.9905 C    0  0  0  0  0  0  0  0  0  0  0  0
    6.7777   14.5744   23.9851 N    0  0  0  0  0  0  0  0  0  0  0  0
    5.7345   14.7893   23.1474 C    0  0  0  0  0  0  0  0  0  0  0  0
    5.4903   14.0366   22.2207 O    0  0  0  0  0  0  0  0  0  0  0  0
    4.8098   15.9642   23.4708 C    0  0  0  0  0  0  0  0  0  0  0  0
    4.9901   16.6497   24.7705 N    0  0  0  0  0  0  0  0  0  0  0  0
    4.4699   16.2601   25.9683 C    0  0  0  0  0  0  0  0  0  0  0  0
    4.7305   17.2246   27.1137 C    0  0  0  0  0  0  0  0  0  0  0  0
    3.8353   15.2312   26.1332 O    0  0  0  0  0  0  0  0  0  0  0  0
    9.0762   13.9036   24.3165 C    0  0  0  0  0  0  0  0  0  0  0  0
    9.4937   13.8172   25.4555 O    0  0  0  0  0  0  0  0  0  0  0  0
    9.8220   14.5018   23.3243 N    0  0  0  0  0  0  0  0  0  0  0  0
   11.0685   15.2710   23.5351 C    0  0  0  0  0  0  0  0  0  0  0  0
   11.4665   15.9197   22.1974 C    0  0  0  0  0  0  0  0  0  0  0  0
   10.8240   14.9772   21.1740 C    0  0  0  0  0  0  0  0  0  0  0  0
   10.5777   15.5556   19.7844 C    0  0  0  0  0  0  0  0  0  0  0  0
   10.8710   14.7248   18.7632 N    0  0  0  0  0  0  0  0  0  0  0  0
    9.9018   16.5485   19.5975 O    0  0  0  0  0  0  0  0  0  0  0  0
    9.5392   14.5013   21.8769 C    0  0  0  0  0  0  0  0  0  0  0  0
    8.3194    8.4530   23.0957 H    0  0  0  0  0  0  0  0  0  0  0  0
    9.5173    8.3133   24.4203 H    0  0  0  0  0  0  0  0  0  0  0  0
   10.0591    8.6312   22.7699 H    0  0  0  0  0  0  0  0  0  0  0  0
    7.5657    8.8942   25.5701 H    0  0  0  0  0  0  0  0  0  0  0  0
    5.7584    9.3444   27.1432 H    0  0  0  0  0  0  0  0  0  0  0  0
    4.8578   11.6440   27.3995 H    0  0  0  0  0  0  0  0  0  0  0  0
    5.7417   13.4641   26.0577 H    0  0  0  0  0  0  0  0  0  0  0  0
    7.6519   12.9595   22.9956 H    0  0  0  0  0  0  0  0  0  0  0  0
    6.8682   15.1710   24.8029 H    0  0  0  0  0  0  0  0  0  0  0  0
    3.7695   15.6331   23.3930 H    0  0  0  0  0  0  0  0  0  0  0  0
    4.9411   16.7177   22.6901 H    0  0  0  0  0  0  0  0  0  0  0  0
    5.4578   17.5537   24.7332 H    0  0  0  0  0  0  0  0  0  0  0  0
    4.3871   18.2318   26.8589 H    0  0  0  0  0  0  0  0  0  0  0  0
    5.8025   17.2714   27.3300 H    0  0  0  0  0  0  0  0  0  0  0  0
    4.2138   16.9103   28.0237 H    0  0  0  0  0  0  0  0  0  0  0  0
   11.8589   14.5983   23.8855 H    0  0  0  0  0  0  0  0  0  0  0  0
   10.9182   16.0440   24.2950 H    0  0  0  0  0  0  0  0  0  0  0  0
   12.5528   15.9749   22.0782 H    0  0  0  0  0  0  0  0  0  0  0  0
   11.0483   16.9297   22.1324 H    0  0  0  0  0  0  0  0  0  0  0  0
   11.4955   14.1111   21.0881 H    0  0  0  0  0  0  0  0  0  0  0  0
   11.0835   13.7485   18.9628 H    0  0  0  0  0  0  0  0  0  0  0  0
   10.7511   15.0206   17.8017 H    0  0  0  0  0  0  0  0  0  0  0  0
    9.2983   13.4968   21.5175 H    0  0  0  0  0  0  0  0  0  0  0  0
    8.6897   15.1572   21.6659 H    0  0  0  0  0  0  0  0  0  0  0  0
  8  9  1  0  0  0  0
  7  8  2  0  0  0  0
  6  7  1  0  0  0  0
  5  6  2  0  0  0  0
  4  5  1  0  0  0  0
  3  4  2  0  0  0  0
  2  3  1  0  0  0  0
  1  2  1  0  0  0  0
 28  1  1  0  0  0  0
 29  1  1  0  0  0  0
 30  1  1  0  0  0  0
 31  4  1  0  0  0  0
 32  5  1  0  0  0  0
 33  6  1  0  0  0  0
 34  7  1  0  0  0  0
 10  9  1  0  0  0  0
 18  9  1  0  0  0  0
 35  9  1  0  0  0  0
 11 10  1  0  0  0  0
 36 10  1  0  0  0  0
 12 11  2  0  0  0  0
 13 11  1  0  0  0  0
 14 13  1  0  0  0  0
 37 13  1  0  0  0  0
 38 13  1  0  0  0  0
 15 14  1  0  0  0  0
 39 14  1  0  0  0  0
 16 15  1  0  0  0  0
 17 15  2  0  0  0  0
 40 16  1  0  0  0  0
 41 16  1  0  0  0  0
 42 16  1  0  0  0  0
 19 18  2  0  0  0  0
 20 18  1  0  0  0  0
 21 20  1  0  0  0  0
 22 21  1  0  0  0  0
 43 21  1  0  0  0  0
 44 21  1  0  0  0  0
 23 22  1  0  0  0  0
 45 22  1  0  0  0  0
 46 22  1  0  0  0  0
 24 23  1  0  0  0  0
 27 23  1  0  0  0  0
 47 23  1  0  0  0  0
 25 24  1  0  0  0  0
 26 24  2  0  0  0  0
 48 25  1  0  0  0  0
 49 25  1  0  0  0  0
 50 27  1  0  0  0  0
 51 27  1  0  0  0  0
  8  3  1  0  0  0  0
 27 20  1  0  0  0  0
M  END
>  <FittedScore>
-40.18

$$$$
