A71EV2A-x6821a_lowest-energy
  FITTED

 51 52     0  0  0  0  0  0  0999 V2000
    9.4113    8.8230   23.4198 C    0  0  0  0  0  0  0  0  0  0  0  0
    9.1503   10.6137   23.6092 S    0  0  0  0  0  0  0  0  0  0  0  0
    7.7761   10.8753   24.7391 C    0  0  0  0  0  0  0  0  0  0  0  0
    7.2632    9.8005   25.4985 C    0  0  0  0  0  0  0  0  0  0  0  0
    6.2655   10.0017   26.4554 C    0  0  0  0  0  0  0  0  0  0  0  0
    5.7616   11.2834   26.6768 C    0  0  0  0  0  0  0  0  0  0  0  0
    6.2455   12.3552   25.9223 C    0  0  0  0  0  0  0  0  0  0  0  0
    7.2246   12.1762   24.9116 C    0  0  0  0  0  0  0  0  0  0  0  0
    7.6678   13.3537   23.9951 C    0  0  0  0  0  0  0  0  0  0  0  0
    6.7655   14.5176   24.0287 N    0  0  0  0  0  0  0  0  0  0  0  0
    5.6898   14.7088   23.2325 C    0  0  0  0  0  0  0  0  0  0  0  0
    5.3899   13.9081   22.3672 O    0  0  0  0  0  0  0  0  0  0  0  0
    4.8834   15.9891   23.4581 C    0  0  0  0  0  0  0  0  0  0  0  0
    4.9827   16.6416   24.7825 N    0  0  0  0  0  0  0  0  0  0  0  0
    4.4666   16.1930   25.9609 C    0  0  0  0  0  0  0  0  0  0  0  0
    4.6637   17.1203   27.1481 C    0  0  0  0  0  0  0  0  0  0  0  0
    3.9003   15.1220   26.0940 O    0  0  0  0  0  0  0  0  0  0  0  0
    9.0727   13.8928   24.2940 C    0  0  0  0  0  0  0  0  0  0  0  0
    9.5134   13.8017   25.4242 O    0  0  0  0  0  0  0  0  0  0  0  0
    9.7842   14.5236   23.2968 N    0  0  0  0  0  0  0  0  0  0  0  0
   11.0644   15.2500   23.4823 C    0  0  0  0  0  0  0  0  0  0  0  0
   11.4240   15.9344   22.1531 C    0  0  0  0  0  0  0  0  0  0  0  0
   10.7370   15.0217   21.1364 C    0  0  0  0  0  0  0  0  0  0  0  0
   10.5237   15.6196   19.7518 C    0  0  0  0  0  0  0  0  0  0  0  0
   10.8973   14.8213   18.7301 N    0  0  0  0  0  0  0  0  0  0  0  0
    9.8697   16.6243   19.5483 O    0  0  0  0  0  0  0  0  0  0  0  0
    9.4491   14.5886   21.8572 C    0  0  0  0  0  0  0  0  0  0  0  0
    8.4881    8.3498   23.0801 H    0  0  0  0  0  0  0  0  0  0  0  0
    9.7403    8.3832   24.3618 H    0  0  0  0  0  0  0  0  0  0  0  0
   10.1880    8.6537   22.6708 H    0  0  0  0  0  0  0  0  0  0  0  0
    7.6477    8.7917   25.3940 H    0  0  0  0  0  0  0  0  0  0  0  0
    5.8910    9.1643   27.0391 H    0  0  0  0  0  0  0  0  0  0  0  0
    4.9929   11.4465   27.4286 H    0  0  0  0  0  0  0  0  0  0  0  0
    5.8374   13.3307   26.1409 H    0  0  0  0  0  0  0  0  0  0  0  0
    7.6294   12.9383   22.9881 H    0  0  0  0  0  0  0  0  0  0  0  0
    6.9134   15.1532   24.8081 H    0  0  0  0  0  0  0  0  0  0  0  0
    3.8251   15.7996   23.2471 H    0  0  0  0  0  0  0  0  0  0  0  0
    5.2066   16.7231   22.7155 H    0  0  0  0  0  0  0  0  0  0  0  0
    5.4183   17.5601   24.7892 H    0  0  0  0  0  0  0  0  0  0  0  0
    5.1708   16.5843   27.9548 H    0  0  0  0  0  0  0  0  0  0  0  0
    3.6942   17.4637   27.5165 H    0  0  0  0  0  0  0  0  0  0  0  0
    5.2712   17.9973   26.9026 H    0  0  0  0  0  0  0  0  0  0  0  0
   11.8475   14.5419   23.7740 H    0  0  0  0  0  0  0  0  0  0  0  0
   10.9763   15.9995   24.2728 H    0  0  0  0  0  0  0  0  0  0  0  0
   12.5047   15.9838   21.9942 H    0  0  0  0  0  0  0  0  0  0  0  0
   11.0110   16.9484   22.1215 H    0  0  0  0  0  0  0  0  0  0  0  0
   11.3669   14.1255   21.0448 H    0  0  0  0  0  0  0  0  0  0  0  0
   10.8547   15.1505   17.7725 H    0  0  0  0  0  0  0  0  0  0  0  0
   11.1236   13.8460   18.9234 H    0  0  0  0  0  0  0  0  0  0  0  0
    9.1431   13.6153   21.4641 H    0  0  0  0  0  0  0  0  0  0  0  0
    8.6351   15.3030   21.6972 H    0  0  0  0  0  0  0  0  0  0  0  0
  8  9  1  0  0  0  0
  7  8  2  0  0  0  0
  6  7  1  0  0  0  0
  5  6  2  0  0  0  0
  4  5  1  0  0  0  0
  3  4  2  0  0  0  0
  2  3  1  0  0  0  0
  1  2  1  0  0  0  0
 28  1  1  0  0  0  0
 29  1  1  0  0  0  0
 30  1  1  0  0  0  0
 31  4  1  0  0  0  0
 32  5  1  0  0  0  0
 33  6  1  0  0  0  0
 34  7  1  0  0  0  0
 10  9  1  0  0  0  0
 18  9  1  0  0  0  0
 35  9  1  0  0  0  0
 11 10  1  0  0  0  0
 36 10  1  0  0  0  0
 12 11  2  0  0  0  0
 13 11  1  0  0  0  0
 14 13  1  0  0  0  0
 37 13  1  0  0  0  0
 38 13  1  0  0  0  0
 15 14  1  0  0  0  0
 39 14  1  0  0  0  0
 16 15  1  0  0  0  0
 17 15  2  0  0  0  0
 40 16  1  0  0  0  0
 41 16  1  0  0  0  0
 42 16  1  0  0  0  0
 19 18  2  0  0  0  0
 20 18  1  0  0  0  0
 21 20  1  0  0  0  0
 22 21  1  0  0  0  0
 43 21  1  0  0  0  0
 44 21  1  0  0  0  0
 23 22  1  0  0  0  0
 45 22  1  0  0  0  0
 46 22  1  0  0  0  0
 24 23  1  0  0  0  0
 27 23  1  0  0  0  0
 47 23  1  0  0  0  0
 25 24  1  0  0  0  0
 26 24  2  0  0  0  0
 48 25  1  0  0  0  0
 49 25  1  0  0  0  0
 50 27  1  0  0  0  0
 51 27  1  0  0  0  0
  8  3  1  0  0  0  0
 27 20  1  0  0  0  0
M  END
>  <FittedScore>
-40.66

$$$$
