A71EV2A-x5339a_best-RMSD
  FITTED

 43 44     0  0  0  0  0  0  0999 V2000
    9.7050   17.1377   19.1481 O    0  0  0  0  0  0  0  0  0  0  0  0
    9.9938   16.1107   19.7273 C    0  0  0  0  0  0  0  0  0  0  0  0
   10.5662   15.0750   19.0653 N    0  0  0  0  0  0  0  0  0  0  0  0
    9.7055   15.9458   21.2217 C    0  0  0  0  0  0  0  0  0  0  0  0
    9.1910   14.5312   21.6338 C    0  0  0  0  0  0  0  0  0  0  0  0
   10.9301   16.3993   22.0610 C    0  0  0  0  0  0  0  0  0  0  0  0
   10.6260   16.2503   23.5685 C    0  0  0  0  0  0  0  0  0  0  0  0
   10.1160   14.8203   23.9482 C    0  0  0  0  0  0  0  0  0  0  0  0
   11.2894   13.7990   24.0296 C    0  0  0  0  0  0  0  0  0  0  0  0
    8.9615   14.3104   23.1026 N    0  0  0  0  0  0  0  0  0  0  0  0
    7.8755   13.5768   23.5598 C    0  0  0  0  0  0  0  0  0  0  0  0
    7.0244   13.1483   22.7915 O    0  0  0  0  0  0  0  0  0  0  0  0
    7.7543   13.2269   25.0561 C    0  0  0  0  0  0  0  0  0  0  0  0
    6.9901   11.9268   25.3495 C    0  0  0  0  0  0  0  0  0  0  0  0
    7.5165   10.6474   25.0224 C    0  0  0  0  0  0  0  0  0  0  0  0
    9.0893   10.4906   24.1541 S    0  0  0  0  0  0  0  0  0  0  0  0
    9.2202    8.8181   23.4383 C    0  0  0  0  0  0  0  0  0  0  0  0
    5.7459   12.0256   26.0081 C    0  0  0  0  0  0  0  0  0  0  0  0
    5.0330   10.8750   26.3661 C    0  0  0  0  0  0  0  0  0  0  0  0
    3.3749   11.0363   27.2954 BR   0  0  0  0  0  0  0  0  0  0  0  0
    5.5604    9.6103   26.0726 C    0  0  0  0  0  0  0  0  0  0  0  0
    6.7862    9.5020   25.4010 C    0  0  0  0  0  0  0  0  0  0  0  0
   10.7223   14.1837   19.5302 H    0  0  0  0  0  0  0  0  0  0  0  0
   10.6976   15.1423   18.0605 H    0  0  0  0  0  0  0  0  0  0  0  0
    8.8830   16.6333   21.4586 H    0  0  0  0  0  0  0  0  0  0  0  0
    8.2838   14.3534   21.0505 H    0  0  0  0  0  0  0  0  0  0  0  0
    9.8890   13.7542   21.3114 H    0  0  0  0  0  0  0  0  0  0  0  0
   11.1568   17.4458   21.8382 H    0  0  0  0  0  0  0  0  0  0  0  0
   11.8171   15.8179   21.7952 H    0  0  0  0  0  0  0  0  0  0  0  0
    9.8680   16.9892   23.8502 H    0  0  0  0  0  0  0  0  0  0  0  0
   11.5194   16.5113   24.1393 H    0  0  0  0  0  0  0  0  0  0  0  0
    9.7784   14.9731   24.9729 H    0  0  0  0  0  0  0  0  0  0  0  0
   11.6764   13.5402   23.0413 H    0  0  0  0  0  0  0  0  0  0  0  0
   10.9616   12.8766   24.5044 H    0  0  0  0  0  0  0  0  0  0  0  0
   12.1206   14.1890   24.6213 H    0  0  0  0  0  0  0  0  0  0  0  0
    8.7186   13.0954   25.5485 H    0  0  0  0  0  0  0  0  0  0  0  0
    7.2982   14.0809   25.5671 H    0  0  0  0  0  0  0  0  0  0  0  0
    8.3462    8.5965   22.8231 H    0  0  0  0  0  0  0  0  0  0  0  0
    9.3293    8.0722   24.2257 H    0  0  0  0  0  0  0  0  0  0  0  0
   10.1088    8.7734   22.8049 H    0  0  0  0  0  0  0  0  0  0  0  0
    5.3400   13.0071   26.2471 H    0  0  0  0  0  0  0  0  0  0  0  0
    5.0333    8.7039   26.3653 H    0  0  0  0  0  0  0  0  0  0  0  0
    7.1604    8.5067   25.1934 H    0  0  0  0  0  0  0  0  0  0  0  0
 10 11  1  0  0  0  0
  5 10  1  0  0  0  0
  4  5  1  0  0  0  0
  2  4  1  0  0  0  0
  1  2  2  0  0  0  0
  3  2  1  0  0  0  0
 23  3  1  0  0  0  0
 24  3  1  0  0  0  0
 25  4  1  0  0  0  0
 26  5  1  0  0  0  0
 27  5  1  0  0  0  0
  6  4  1  0  0  0  0
 28  6  1  0  0  0  0
 29  6  1  0  0  0  0
  7  6  1  0  0  0  0
 30  7  1  0  0  0  0
 31  7  1  0  0  0  0
  8  7  1  0  0  0  0
  9  8  1  0  0  0  0
 32  8  1  0  0  0  0
 33  9  1  0  0  0  0
 34  9  1  0  0  0  0
 35  9  1  0  0  0  0
 12 11  2  0  0  0  0
 13 11  1  0  0  0  0
 36 13  1  0  0  0  0
 37 13  1  0  0  0  0
 14 13  1  0  0  0  0
 15 14  1  0  0  0  0
 22 15  2  0  0  0  0
 16 15  1  0  0  0  0
 17 16  1  0  0  0  0
 38 17  1  0  0  0  0
 39 17  1  0  0  0  0
 40 17  1  0  0  0  0
 18 14  2  0  0  0  0
 41 18  1  0  0  0  0
 19 18  1  0  0  0  0
 20 19  1  0  0  0  0
 21 19  2  0  0  0  0
 42 21  1  0  0  0  0
 43 22  1  0  0  0  0
 10  8  1  0  0  0  0
 22 21  1  0  0  0  0
M  END
>  <FittedScore>
-33.48

$$$$
