A71EV2A-x4998b_lowest-energy
  FITTED

 31 32     0  0  0  0  0  0  0999 V2000
   10.0085   15.4925   21.8189 O    0  0  0  0  0  0  0  0  0  0  0  0
   11.1010   15.1953   22.2702 C    0  0  0  0  0  0  0  0  0  0  0  0
   12.1219   15.9115   21.7665 N    0  0  0  0  0  0  0  0  0  0  0  0
   11.6366   14.1717   23.3463 C    0  0  0  0  0  0  0  0  0  0  0  0
   10.4881   13.0945   23.3151 C    0  0  0  0  0  0  0  0  0  0  0  0
   10.7630   14.6216   24.5779 C    0  0  0  0  0  0  0  0  0  0  0  0
    9.6504   13.6731   24.3797 N    0  0  0  0  0  0  0  0  0  0  0  0
    8.3054   13.8765   24.4526 C    0  0  0  0  0  0  0  0  0  0  0  0
    7.8434   14.8891   24.9490 O    0  0  0  0  0  0  0  0  0  0  0  0
    7.3867   12.8900   23.7482 C    0  0  0  0  0  0  0  0  0  0  0  0
    7.0866   11.7147   24.6682 C    0  0  0  0  0  0  0  0  0  0  0  0
    6.2742   11.8619   25.7877 C    0  0  0  0  0  0  0  0  0  0  0  0
    6.1558   10.3972   26.7555 S    0  0  0  0  0  0  0  0  0  0  0  0
    7.1968    9.6027   25.5772 C    0  0  0  0  0  0  0  0  0  0  0  0
    7.6152   10.4334   24.5465 C    0  0  0  0  0  0  0  0  0  0  0  0
    8.7033    9.9397   23.2215 S    0  0  0  0  0  0  0  0  0  0  0  0
    9.4791    8.3851   23.7384 C    0  0  0  0  0  0  0  0  0  0  0  0
   13.0769   15.6953   22.0135 H    0  0  0  0  0  0  0  0  0  0  0  0
   11.9286   16.6985   21.1629 H    0  0  0  0  0  0  0  0  0  0  0  0
   12.6904   13.8958   23.4475 H    0  0  0  0  0  0  0  0  0  0  0  0
    9.9984   12.9174   22.3491 H    0  0  0  0  0  0  0  0  0  0  0  0
   10.8535   12.1047   23.6153 H    0  0  0  0  0  0  0  0  0  0  0  0
   10.4676   15.6807   24.6262 H    0  0  0  0  0  0  0  0  0  0  0  0
   11.2604   14.4314   25.5355 H    0  0  0  0  0  0  0  0  0  0  0  0
    6.4466   13.3898   23.4989 H    0  0  0  0  0  0  0  0  0  0  0  0
    7.7838   12.5834   22.7808 H    0  0  0  0  0  0  0  0  0  0  0  0
    5.7741   12.7900   26.0551 H    0  0  0  0  0  0  0  0  0  0  0  0
    7.4832    8.5615   25.6885 H    0  0  0  0  0  0  0  0  0  0  0  0
    8.7367    7.5851   23.7671 H    0  0  0  0  0  0  0  0  0  0  0  0
   10.2538    8.1120   23.0216 H    0  0  0  0  0  0  0  0  0  0  0  0
    9.9347    8.4976   24.7261 H    0  0  0  0  0  0  0  0  0  0  0  0
  7  8  1  0  0  0  0
  5  7  1  0  0  0  0
  4  5  1  0  0  0  0
  2  4  1  0  0  0  0
  1  2  2  0  0  0  0
  3  2  1  0  0  0  0
 18  3  1  0  0  0  0
 19  3  1  0  0  0  0
 20  4  1  0  0  0  0
 21  5  1  0  0  0  0
 22  5  1  0  0  0  0
  6  4  1  0  0  0  0
 23  6  1  0  0  0  0
 24  6  1  0  0  0  0
  9  8  2  0  0  0  0
 10  8  1  0  0  0  0
 25 10  1  0  0  0  0
 26 10  1  0  0  0  0
 11 10  1  0  0  0  0
 12 11  2  0  0  0  0
 27 12  1  0  0  0  0
 13 12  1  0  0  0  0
 14 13  1  0  0  0  0
 28 14  1  0  0  0  0
 15 14  2  0  0  0  0
 16 15  1  0  0  0  0
 17 16  1  0  0  0  0
 29 17  1  0  0  0  0
 30 17  1  0  0  0  0
 31 17  1  0  0  0  0
  7  6  1  0  0  0  0
 15 11  1  0  0  0  0
M  END
>  <FittedScore>
-24.54

$$$$
