A71EV2A-x5394a_lowest-energy
  FITTED

 36 37     0  0  0  0  0  0  0999 V2000
    9.1171   10.4225   23.8154 CL   0  0  0  0  0  0  0  0  0  0  0  0
    7.7393   10.6893   24.8300 C    0  0  0  0  0  0  0  0  0  0  0  0
    6.9911    9.5633   25.1993 C    0  0  0  0  0  0  0  0  0  0  0  0
    5.8872    9.6904   26.0516 C    0  0  0  0  0  0  0  0  0  0  0  0
    5.5099   10.9516   26.5255 C    0  0  0  0  0  0  0  0  0  0  0  0
    6.2341   12.0856   26.1419 C    0  0  0  0  0  0  0  0  0  0  0  0
    7.3595   11.9747   25.2944 C    0  0  0  0  0  0  0  0  0  0  0  0
    8.1478   13.2417   24.9424 C    0  0  0  0  0  0  0  0  0  0  0  0
    8.0368   13.7089   23.4808 C    0  0  0  0  0  0  0  0  0  0  0  0
    7.2784   13.1269   22.7219 O    0  0  0  0  0  0  0  0  0  0  0  0
    8.8513   14.7433   23.0463 N    0  0  0  0  0  0  0  0  0  0  0  0
    9.6624   15.6622   23.9210 C    0  0  0  0  0  0  0  0  0  0  0  0
   11.1286   15.8654   23.4484 C    0  0  0  0  0  0  0  0  0  0  0  0
   11.1988   16.3305   21.9723 C    0  0  0  0  0  0  0  0  0  0  0  0
    8.9009   15.1985   21.6172 C    0  0  0  0  0  0  0  0  0  0  0  0
   10.3586   15.3758   21.0773 C    0  0  0  0  0  0  0  0  0  0  0  0
   10.3617   15.8260   19.6201 C    0  0  0  0  0  0  0  0  0  0  0  0
    9.9248   16.8956   19.2418 O    0  0  0  0  0  0  0  0  0  0  0  0
   10.7379   14.8812   18.7382 N    0  0  0  0  0  0  0  0  0  0  0  0
    7.2652    8.5825   24.8170 H    0  0  0  0  0  0  0  0  0  0  0  0
    5.3197    8.8077   26.3408 H    0  0  0  0  0  0  0  0  0  0  0  0
    4.6530   11.0503   27.1945 H    0  0  0  0  0  0  0  0  0  0  0  0
    5.9184   13.0579   26.5204 H    0  0  0  0  0  0  0  0  0  0  0  0
    7.8270   14.0596   25.5919 H    0  0  0  0  0  0  0  0  0  0  0  0
    9.1937   13.0484   25.1935 H    0  0  0  0  0  0  0  0  0  0  0  0
    9.1600   16.6333   23.9608 H    0  0  0  0  0  0  0  0  0  0  0  0
    9.7180   15.3394   24.9594 H    0  0  0  0  0  0  0  0  0  0  0  0
   11.6132   16.6072   24.0875 H    0  0  0  0  0  0  0  0  0  0  0  0
   11.6851   14.9310   23.5701 H    0  0  0  0  0  0  0  0  0  0  0  0
   10.8354   17.3604   21.8927 H    0  0  0  0  0  0  0  0  0  0  0  0
   12.2407   16.3415   21.6378 H    0  0  0  0  0  0  0  0  0  0  0  0
    8.3504   16.1422   21.5310 H    0  0  0  0  0  0  0  0  0  0  0  0
    8.3899   14.5038   20.9454 H    0  0  0  0  0  0  0  0  0  0  0  0
   10.8333   14.3910   21.1473 H    0  0  0  0  0  0  0  0  0  0  0  0
   10.7419   15.0874   17.7476 H    0  0  0  0  0  0  0  0  0  0  0  0
   10.9204   13.9337   19.0512 H    0  0  0  0  0  0  0  0  0  0  0  0
  8  9  1  0  0  0  0
  7  8  1  0  0  0  0
  6  7  2  0  0  0  0
  5  6  1  0  0  0  0
  4  5  2  0  0  0  0
  3  4  1  0  0  0  0
  2  3  2  0  0  0  0
  1  2  1  0  0  0  0
 20  3  1  0  0  0  0
 21  4  1  0  0  0  0
 22  5  1  0  0  0  0
 23  6  1  0  0  0  0
 24  8  1  0  0  0  0
 25  8  1  0  0  0  0
 10  9  2  0  0  0  0
 11  9  1  0  0  0  0
 12 11  1  0  0  0  0
 26 12  1  0  0  0  0
 27 12  1  0  0  0  0
 13 12  1  0  0  0  0
 28 13  1  0  0  0  0
 29 13  1  0  0  0  0
 14 13  1  0  0  0  0
 30 14  1  0  0  0  0
 31 14  1  0  0  0  0
 15 11  1  0  0  0  0
 32 15  1  0  0  0  0
 33 15  1  0  0  0  0
 16 14  1  0  0  0  0
 17 16  1  0  0  0  0
 34 16  1  0  0  0  0
 18 17  2  0  0  0  0
 19 17  1  0  0  0  0
 35 19  1  0  0  0  0
 36 19  1  0  0  0  0
  7  2  1  0  0  0  0
 16 15  1  0  0  0  0
M  END
>  <FittedScore>
-33.87

$$$$
