A71EV2A-x4774a_best-RMSD
  FITTED

 38 39     0  0  0  0  0  0  0999 V2000
    9.8071   16.6718   19.1802 O    0  0  0  0  0  0  0  0  0  0  0  0
   10.3725   15.6741   19.5860 C    0  0  0  0  0  0  0  0  0  0  0  0
   10.8853   14.7918   18.7112 N    0  0  0  0  0  0  0  0  0  0  0  0
   10.4287   15.2506   21.0551 C    0  0  0  0  0  0  0  0  0  0  0  0
   11.2833   16.2388   21.8941 C    0  0  0  0  0  0  0  0  0  0  0  0
   11.3207   15.7801   23.3740 C    0  0  0  0  0  0  0  0  0  0  0  0
    9.8973   15.5200   23.9452 C    0  0  0  0  0  0  0  0  0  0  0  0
    9.0022   15.0868   21.6768 C    0  0  0  0  0  0  0  0  0  0  0  0
    9.0247   14.6194   23.1050 N    0  0  0  0  0  0  0  0  0  0  0  0
    8.1960   13.6133   23.5760 C    0  0  0  0  0  0  0  0  0  0  0  0
    7.3216   13.1332   22.8692 O    0  0  0  0  0  0  0  0  0  0  0  0
    8.3494   13.1339   25.0348 C    0  0  0  0  0  0  0  0  0  0  0  0
    7.5858   11.8479   25.3770 C    0  0  0  0  0  0  0  0  0  0  0  0
    8.0171   10.5587   24.9542 C    0  0  0  0  0  0  0  0  0  0  0  0
    9.4965   10.3622   23.9621 S    0  0  0  0  0  0  0  0  0  0  0  0
    9.5206    8.6228   23.4339 C    0  0  0  0  0  0  0  0  0  0  0  0
    6.4493   11.9925   26.1240 N    0  0  0  0  0  0  0  0  0  0  0  0
    5.7556   10.8742   26.4696 C    0  0  0  0  0  0  0  0  0  0  0  0
    6.1866    9.6030   26.0636 C    0  0  0  0  0  0  0  0  0  0  0  0
    7.3013    9.4454   25.3001 N    0  0  0  0  0  0  0  0  0  0  0  0
   11.1953   13.8743   19.0226 H    0  0  0  0  0  0  0  0  0  0  0  0
   10.7740   14.9610   17.7182 H    0  0  0  0  0  0  0  0  0  0  0  0
   10.9180   14.2673   21.1293 H    0  0  0  0  0  0  0  0  0  0  0  0
   12.2990   16.2919   21.4911 H    0  0  0  0  0  0  0  0  0  0  0  0
   10.8725   17.2524   21.8360 H    0  0  0  0  0  0  0  0  0  0  0  0
   11.9221   14.8703   23.4613 H    0  0  0  0  0  0  0  0  0  0  0  0
   11.8189   16.5467   23.9716 H    0  0  0  0  0  0  0  0  0  0  0  0
   10.0488   15.1483   24.9559 H    0  0  0  0  0  0  0  0  0  0  0  0
    9.3827   16.4777   24.0674 H    0  0  0  0  0  0  0  0  0  0  0  0
    8.4450   14.4038   21.0292 H    0  0  0  0  0  0  0  0  0  0  0  0
    8.4562   16.0359   21.6338 H    0  0  0  0  0  0  0  0  0  0  0  0
    9.4019   12.9681   25.2812 H    0  0  0  0  0  0  0  0  0  0  0  0
    8.0218   13.9404   25.6986 H    0  0  0  0  0  0  0  0  0  0  0  0
   10.4135    8.4366   22.8345 H    0  0  0  0  0  0  0  0  0  0  0  0
    8.6351    8.4083   22.8310 H    0  0  0  0  0  0  0  0  0  0  0  0
    9.5431    7.9692   24.3071 H    0  0  0  0  0  0  0  0  0  0  0  0
    4.8516   10.9691   27.0643 H    0  0  0  0  0  0  0  0  0  0  0  0
    5.6153    8.7258   26.3569 H    0  0  0  0  0  0  0  0  0  0  0  0
  9 10  1  0  0  0  0
  7  9  1  0  0  0  0
  6  7  1  0  0  0  0
  5  6  1  0  0  0  0
  4  5  1  0  0  0  0
  2  4  1  0  0  0  0
  1  2  2  0  0  0  0
  3  2  1  0  0  0  0
 21  3  1  0  0  0  0
 22  3  1  0  0  0  0
 23  4  1  0  0  0  0
 24  5  1  0  0  0  0
 25  5  1  0  0  0  0
 26  6  1  0  0  0  0
 27  6  1  0  0  0  0
 28  7  1  0  0  0  0
 29  7  1  0  0  0  0
  8  4  1  0  0  0  0
 30  8  1  0  0  0  0
 31  8  1  0  0  0  0
 11 10  2  0  0  0  0
 12 10  1  0  0  0  0
 32 12  1  0  0  0  0
 33 12  1  0  0  0  0
 13 12  1  0  0  0  0
 14 13  1  0  0  0  0
 20 14  2  0  0  0  0
 15 14  1  0  0  0  0
 16 15  1  0  0  0  0
 34 16  1  0  0  0  0
 35 16  1  0  0  0  0
 36 16  1  0  0  0  0
 17 13  2  0  0  0  0
 18 17  1  0  0  0  0
 37 18  1  0  0  0  0
 19 18  2  0  0  0  0
 38 19  1  0  0  0  0
  9  8  1  0  0  0  0
 20 19  1  0  0  0  0
M  END
>  <FittedScore>
-30.61

$$$$
