A71EV2A-x4774a_lowest-energy
  FITTED

 38 39     0  0  0  0  0  0  0999 V2000
    9.7855   16.6685   19.1366 O    0  0  0  0  0  0  0  0  0  0  0  0
   10.3860   15.6932   19.5473 C    0  0  0  0  0  0  0  0  0  0  0  0
   10.9423   14.8339   18.6783 N    0  0  0  0  0  0  0  0  0  0  0  0
   10.3958   15.2500   21.0090 C    0  0  0  0  0  0  0  0  0  0  0  0
   11.3223   16.1620   21.8622 C    0  0  0  0  0  0  0  0  0  0  0  0
   11.2976   15.7119   23.3461 C    0  0  0  0  0  0  0  0  0  0  0  0
    9.8438   15.5956   23.8814 C    0  0  0  0  0  0  0  0  0  0  0  0
    8.9588   15.1546   21.6143 C    0  0  0  0  0  0  0  0  0  0  0  0
    8.9549   14.7035   23.0497 N    0  0  0  0  0  0  0  0  0  0  0  0
    8.1649   13.6684   23.5168 C    0  0  0  0  0  0  0  0  0  0  0  0
    7.3253   13.1403   22.8045 O    0  0  0  0  0  0  0  0  0  0  0  0
    8.3677   13.1655   24.9594 C    0  0  0  0  0  0  0  0  0  0  0  0
    7.6212   11.8751   25.3240 C    0  0  0  0  0  0  0  0  0  0  0  0
    8.0514   10.5879   24.8927 C    0  0  0  0  0  0  0  0  0  0  0  0
    9.5123   10.3938   23.8799 S    0  0  0  0  0  0  0  0  0  0  0  0
    9.5198    8.6545   23.3574 C    0  0  0  0  0  0  0  0  0  0  0  0
    6.5160   12.0074   26.1197 N    0  0  0  0  0  0  0  0  0  0  0  0
    5.8456   10.8798   26.4863 C    0  0  0  0  0  0  0  0  0  0  0  0
    6.2604    9.6146   26.0500 C    0  0  0  0  0  0  0  0  0  0  0  0
    7.3566    9.4693   25.2557 N    0  0  0  0  0  0  0  0  0  0  0  0
   11.2198   13.9033   18.9924 H    0  0  0  0  0  0  0  0  0  0  0  0
   10.9048   15.0300   17.6844 H    0  0  0  0  0  0  0  0  0  0  0  0
   10.8128   14.2355   21.0699 H    0  0  0  0  0  0  0  0  0  0  0  0
   12.3479   16.1036   21.4861 H    0  0  0  0  0  0  0  0  0  0  0  0
   11.0078   17.2084   21.7835 H    0  0  0  0  0  0  0  0  0  0  0  0
   11.8002   14.7447   23.4465 H    0  0  0  0  0  0  0  0  0  0  0  0
   11.8614   16.4251   23.9523 H    0  0  0  0  0  0  0  0  0  0  0  0
    9.9146   15.2894   24.9227 H    0  0  0  0  0  0  0  0  0  0  0  0
    9.3964   16.5931   23.9203 H    0  0  0  0  0  0  0  0  0  0  0  0
    8.3822   14.4870   20.9671 H    0  0  0  0  0  0  0  0  0  0  0  0
    8.4587   16.1270   21.5494 H    0  0  0  0  0  0  0  0  0  0  0  0
    9.4312   13.0029   25.1521 H    0  0  0  0  0  0  0  0  0  0  0  0
    8.0636   13.9608   25.6457 H    0  0  0  0  0  0  0  0  0  0  0  0
    9.6255    8.0057   24.2226 H    0  0  0  0  0  0  0  0  0  0  0  0
   10.3644    8.4813   22.6884 H    0  0  0  0  0  0  0  0  0  0  0  0
    8.5960    8.4091   22.8279 H    0  0  0  0  0  0  0  0  0  0  0  0
    4.9683   10.9616   27.1226 H    0  0  0  0  0  0  0  0  0  0  0  0
    5.6992    8.7306   26.3440 H    0  0  0  0  0  0  0  0  0  0  0  0
  9 10  1  0  0  0  0
  7  9  1  0  0  0  0
  6  7  1  0  0  0  0
  5  6  1  0  0  0  0
  4  5  1  0  0  0  0
  2  4  1  0  0  0  0
  1  2  2  0  0  0  0
  3  2  1  0  0  0  0
 21  3  1  0  0  0  0
 22  3  1  0  0  0  0
 23  4  1  0  0  0  0
 24  5  1  0  0  0  0
 25  5  1  0  0  0  0
 26  6  1  0  0  0  0
 27  6  1  0  0  0  0
 28  7  1  0  0  0  0
 29  7  1  0  0  0  0
  8  4  1  0  0  0  0
 30  8  1  0  0  0  0
 31  8  1  0  0  0  0
 11 10  2  0  0  0  0
 12 10  1  0  0  0  0
 32 12  1  0  0  0  0
 33 12  1  0  0  0  0
 13 12  1  0  0  0  0
 14 13  1  0  0  0  0
 20 14  2  0  0  0  0
 15 14  1  0  0  0  0
 16 15  1  0  0  0  0
 34 16  1  0  0  0  0
 35 16  1  0  0  0  0
 36 16  1  0  0  0  0
 17 13  2  0  0  0  0
 18 17  1  0  0  0  0
 37 18  1  0  0  0  0
 19 18  2  0  0  0  0
 38 19  1  0  0  0  0
  9  8  1  0  0  0  0
 20 19  1  0  0  0  0
M  END
>  <FittedScore>
-30.67

$$$$
