A71EV2A-x7436b_best-RMSD
  FITTED

 59 61     0  0  0  0  0  0  0999 V2000
    9.5137    8.6146   23.4811 C    0  0  0  0  0  0  0  0  0  0  0  0
    9.3956   10.3636   23.9661 S    0  0  0  0  0  0  0  0  0  0  0  0
    7.9157   10.5307   24.9621 C    0  0  0  0  0  0  0  0  0  0  0  0
    7.2362    9.3923   25.2770 N    0  0  0  0  0  0  0  0  0  0  0  0
    6.1496    9.4926   26.0816 C    0  0  0  0  0  0  0  0  0  0  0  0
    5.6566   10.6555   26.5688 N    0  0  0  0  0  0  0  0  0  0  0  0
    6.2884   11.8127   26.2278 C    0  0  0  0  0  0  0  0  0  0  0  0
    5.7031   12.9612   26.7227 N    0  0  0  0  0  0  0  0  0  0  0  0
    5.9634   13.3387   28.1341 C    0  0  0  0  0  0  0  0  0  0  0  0
    4.7457   13.7329   25.8710 C    0  0  0  0  0  0  0  0  0  0  0  0
    3.2773   13.3226   26.1663 C    0  0  0  0  0  0  0  0  0  0  0  0
    5.0344   15.2471   25.9010 C    0  0  0  0  0  0  0  0  0  0  0  0
    5.7438   15.8490   24.8405 C    0  0  0  0  0  0  0  0  0  0  0  0
    6.0857   17.2058   24.8830 C    0  0  0  0  0  0  0  0  0  0  0  0
    5.6995   17.9837   25.9815 C    0  0  0  0  0  0  0  0  0  0  0  0
    4.9564   17.4195   27.0251 C    0  0  0  0  0  0  0  0  0  0  0  0
    4.6211   16.0604   26.9816 C    0  0  0  0  0  0  0  0  0  0  0  0
    7.4655   11.8028   25.4221 C    0  0  0  0  0  0  0  0  0  0  0  0
    8.2375   13.0955   25.0695 C    0  0  0  0  0  0  0  0  0  0  0  0
    8.1252   13.5390   23.5959 C    0  0  0  0  0  0  0  0  0  0  0  0
    7.3518   12.9540   22.8517 O    0  0  0  0  0  0  0  0  0  0  0  0
    8.8852   14.6032   23.1422 N    0  0  0  0  0  0  0  0  0  0  0  0
    9.7391   15.5198   23.9785 C    0  0  0  0  0  0  0  0  0  0  0  0
   11.2061   15.6298   23.4694 C    0  0  0  0  0  0  0  0  0  0  0  0
   11.2766   16.0498   21.9738 C    0  0  0  0  0  0  0  0  0  0  0  0
   10.3357   15.1659   21.1017 C    0  0  0  0  0  0  0  0  0  0  0  0
   10.3080   15.6398   19.6464 C    0  0  0  0  0  0  0  0  0  0  0  0
   10.8280   14.7867   18.7462 N    0  0  0  0  0  0  0  0  0  0  0  0
    9.7303   16.6364   19.2630 O    0  0  0  0  0  0  0  0  0  0  0  0
    8.8998   15.0571   21.7096 C    0  0  0  0  0  0  0  0  0  0  0  0
   10.4146    8.4565   22.8846 H    0  0  0  0  0  0  0  0  0  0  0  0
    8.6395    8.3356   22.8868 H    0  0  0  0  0  0  0  0  0  0  0  0
    9.5682    7.9907   24.3748 H    0  0  0  0  0  0  0  0  0  0  0  0
    5.6348    8.5755   26.3501 H    0  0  0  0  0  0  0  0  0  0  0  0
    6.4972   12.5607   28.6868 H    0  0  0  0  0  0  0  0  0  0  0  0
    5.0434   13.5329   28.6902 H    0  0  0  0  0  0  0  0  0  0  0  0
    6.5893   14.2321   28.1916 H    0  0  0  0  0  0  0  0  0  0  0  0
    4.8906   13.4154   24.8308 H    0  0  0  0  0  0  0  0  0  0  0  0
    2.9913   13.5084   27.2044 H    0  0  0  0  0  0  0  0  0  0  0  0
    3.1244   12.2614   25.9567 H    0  0  0  0  0  0  0  0  0  0  0  0
    2.5970   13.8874   25.5237 H    0  0  0  0  0  0  0  0  0  0  0  0
    6.0319   15.2677   23.9731 H    0  0  0  0  0  0  0  0  0  0  0  0
    6.6437   17.6559   24.0663 H    0  0  0  0  0  0  0  0  0  0  0  0
    5.9667   19.0361   26.0177 H    0  0  0  0  0  0  0  0  0  0  0  0
    4.6447   18.0326   27.8691 H    0  0  0  0  0  0  0  0  0  0  0  0
    4.0534   15.6396   27.8073 H    0  0  0  0  0  0  0  0  0  0  0  0
    9.2850   12.9356   25.3389 H    0  0  0  0  0  0  0  0  0  0  0  0
    7.9253   13.9229   25.7084 H    0  0  0  0  0  0  0  0  0  0  0  0
    9.7806   15.2355   25.0295 H    0  0  0  0  0  0  0  0  0  0  0  0
    9.2859   16.5173   23.9810 H    0  0  0  0  0  0  0  0  0  0  0  0
   11.7091   14.6659   23.6053 H    0  0  0  0  0  0  0  0  0  0  0  0
   11.7508   16.3555   24.0796 H    0  0  0  0  0  0  0  0  0  0  0  0
   12.3069   15.9395   21.6217 H    0  0  0  0  0  0  0  0  0  0  0  0
   11.0203   17.1094   21.8735 H    0  0  0  0  0  0  0  0  0  0  0  0
   10.7538   14.1514   21.1349 H    0  0  0  0  0  0  0  0  0  0  0  0
   11.1338   13.8626   19.0424 H    0  0  0  0  0  0  0  0  0  0  0  0
   10.7867   15.0131   17.7572 H    0  0  0  0  0  0  0  0  0  0  0  0
    8.3292   14.3917   21.0578 H    0  0  0  0  0  0  0  0  0  0  0  0
    8.3901   16.0238   21.6531 H    0  0  0  0  0  0  0  0  0  0  0  0
 19 20  1  0  0  0  0
 18 19  1  0  0  0  0
  7 18  2  0  0  0  0
  6  7  1  0  0  0  0
  5  6  2  0  0  0  0
  4  5  1  0  0  0  0
  3  4  2  0  0  0  0
  2  3  1  0  0  0  0
  1  2  1  0  0  0  0
 31  1  1  0  0  0  0
 32  1  1  0  0  0  0
 33  1  1  0  0  0  0
 34  5  1  0  0  0  0
  8  7  1  0  0  0  0
  9  8  1  0  0  0  0
 10  8  1  0  0  0  0
 35  9  1  0  0  0  0
 36  9  1  0  0  0  0
 37  9  1  0  0  0  0
 11 10  1  0  0  0  0
 12 10  1  0  0  0  0
 38 10  1  0  0  0  0
 39 11  1  0  0  0  0
 40 11  1  0  0  0  0
 41 11  1  0  0  0  0
 13 12  2  0  0  0  0
 14 13  1  0  0  0  0
 42 13  1  0  0  0  0
 15 14  2  0  0  0  0
 43 14  1  0  0  0  0
 16 15  1  0  0  0  0
 44 15  1  0  0  0  0
 17 16  2  0  0  0  0
 45 16  1  0  0  0  0
 46 17  1  0  0  0  0
 47 19  1  0  0  0  0
 48 19  1  0  0  0  0
 21 20  2  0  0  0  0
 22 20  1  0  0  0  0
 23 22  1  0  0  0  0
 24 23  1  0  0  0  0
 49 23  1  0  0  0  0
 50 23  1  0  0  0  0
 25 24  1  0  0  0  0
 51 24  1  0  0  0  0
 52 24  1  0  0  0  0
 26 25  1  0  0  0  0
 53 25  1  0  0  0  0
 54 25  1  0  0  0  0
 27 26  1  0  0  0  0
 30 26  1  0  0  0  0
 55 26  1  0  0  0  0
 28 27  1  0  0  0  0
 29 27  2  0  0  0  0
 56 28  1  0  0  0  0
 57 28  1  0  0  0  0
 58 30  1  0  0  0  0
 59 30  1  0  0  0  0
 17 12  1  0  0  0  0
 18  3  1  0  0  0  0
 30 22  1  0  0  0  0
M  END
>  <FittedScore>
-40.09

$$$$
