A71EV2A-x7631a_lowest-energy
  FITTED

 41 43     0  0  0  0  0  0  0999 V2000
    5.1993   11.2400   27.5342 C    0  0  0  0  0  0  0  0  0  0  0  0
    5.7096   12.1200   26.0345 S    0  0  0  0  0  0  0  0  0  0  0  0
    6.9819   11.1697   25.2161 C    0  0  0  0  0  0  0  0  0  0  0  0
    7.1882    9.8206   25.5784 C    0  0  0  0  0  0  0  0  0  0  0  0
    8.0825    9.0223   24.8561 C    0  0  0  0  0  0  0  0  0  0  0  0
    8.7987    9.5701   23.7936 C    0  0  0  0  0  0  0  0  0  0  0  0
    8.6457   10.9203   23.4599 C    0  0  0  0  0  0  0  0  0  0  0  0
    7.7789   11.7531   24.1852 C    0  0  0  0  0  0  0  0  0  0  0  0
    7.7265   13.2336   23.7733 C    0  0  0  0  0  0  0  0  0  0  0  0
    9.0125   13.9536   24.1623 C    0  0  0  0  0  0  0  0  0  0  0  0
    9.4414   13.7389   25.2858 O    0  0  0  0  0  0  0  0  0  0  0  0
    9.5671   14.8333   23.2622 N    0  0  0  0  0  0  0  0  0  0  0  0
    9.2623   15.0378   21.8240 C    0  0  0  0  0  0  0  0  0  0  0  0
   10.5951   15.1747   20.9735 C    0  0  0  0  0  0  0  0  0  0  0  0
   10.3063   15.5873   19.5601 C    0  0  0  0  0  0  0  0  0  0  0  0
   11.2201   15.1717   18.6782 N    0  0  0  0  0  0  0  0  0  0  0  0
    9.4953   16.4406   19.3215 O    0  0  0  0  0  0  0  0  0  0  0  0
   11.6520   16.2186   21.4586 C    0  0  0  0  0  0  0  0  0  0  0  0
   11.8568   16.0448   22.9164 C    0  0  0  0  0  0  0  0  0  0  0  0
   11.8856   14.7921   23.7067 C    0  0  0  0  0  0  0  0  0  0  0  0
   10.6948   15.6384   23.7467 C    0  0  0  0  0  0  0  0  0  0  0  0
    6.0789   11.0905   28.1763 H    0  0  0  0  0  0  0  0  0  0  0  0
    4.7396   10.2716   27.3301 H    0  0  0  0  0  0  0  0  0  0  0  0
    4.4821   11.8753   28.0348 H    0  0  0  0  0  0  0  0  0  0  0  0
    6.6456    9.3437   26.3711 H    0  0  0  0  0  0  0  0  0  0  0  0
    8.1839    7.9702   25.1108 H    0  0  0  0  0  0  0  0  0  0  0  0
    9.4884    8.9466   23.2189 H    0  0  0  0  0  0  0  0  0  0  0  0
    9.2280   11.3134   22.6333 H    0  0  0  0  0  0  0  0  0  0  0  0
    6.8858   13.7157   24.2619 H    0  0  0  0  0  0  0  0  0  0  0  0
    7.4826   13.3455   22.7102 H    0  0  0  0  0  0  0  0  0  0  0  0
    8.6757   15.9537   21.7508 H    0  0  0  0  0  0  0  0  0  0  0  0
    8.6492   14.2317   21.3825 H    0  0  0  0  0  0  0  0  0  0  0  0
   11.0695   14.1882   20.9971 H    0  0  0  0  0  0  0  0  0  0  0  0
   11.9485   14.5591   19.0054 H    0  0  0  0  0  0  0  0  0  0  0  0
   11.0314   15.2672   17.6997 H    0  0  0  0  0  0  0  0  0  0  0  0
   11.3295   17.2474   21.2643 H    0  0  0  0  0  0  0  0  0  0  0  0
   12.6093   16.1065   20.9589 H    0  0  0  0  0  0  0  0  0  0  0  0
   12.5041   16.8219   23.3229 H    0  0  0  0  0  0  0  0  0  0  0  0
   12.4936   14.7593   24.5961 H    0  0  0  0  0  0  0  0  0  0  0  0
   11.8414   13.8307   23.2063 H    0  0  0  0  0  0  0  0  0  0  0  0
   10.3371   16.1357   24.6398 H    0  0  0  0  0  0  0  0  0  0  0  0
  9 10  1  0  0  0  0
  8  9  1  0  0  0  0
  7  8  2  0  0  0  0
  6  7  1  0  0  0  0
  5  6  2  0  0  0  0
  4  5  1  0  0  0  0
  3  4  2  0  0  0  0
  2  3  1  0  0  0  0
  1  2  1  0  0  0  0
 22  1  1  0  0  0  0
 23  1  1  0  0  0  0
 24  1  1  0  0  0  0
 25  4  1  0  0  0  0
 26  5  1  0  0  0  0
 27  6  1  0  0  0  0
 28  7  1  0  0  0  0
 29  9  1  0  0  0  0
 30  9  1  0  0  0  0
 11 10  2  0  0  0  0
 12 10  1  0  0  0  0
 13 12  1  0  0  0  0
 14 13  1  0  0  0  0
 31 13  1  0  0  0  0
 32 13  1  0  0  0  0
 15 14  1  0  0  0  0
 18 14  1  0  0  0  0
 33 14  1  0  0  0  0
 16 15  1  0  0  0  0
 17 15  2  0  0  0  0
 34 16  1  0  0  0  0
 35 16  1  0  0  0  0
 36 18  1  0  0  0  0
 37 18  1  0  0  0  0
 19 18  1  0  0  0  0
 20 19  1  0  0  0  0
 38 19  1  0  0  0  0
 39 20  1  0  0  0  0
 40 20  1  0  0  0  0
 21 20  1  0  0  0  0
 41 21  1  0  0  0  0
  8  3  1  0  0  0  0
 21 12  1  0  0  0  0
 21 19  1  0  0  0  0
M  END
>  <FittedScore>
-26.42

$$$$
