A71EV2A-x7631a_best-RMSD
  FITTED

 41 43     0  0  0  0  0  0  0999 V2000
    9.5681   10.1042   23.7045 C    0  0  0  0  0  0  0  0  0  0  0  0
    9.0132   11.8338   23.6590 S    0  0  0  0  0  0  0  0  0  0  0  0
    7.8649   12.1534   25.0248 C    0  0  0  0  0  0  0  0  0  0  0  0
    7.1372   11.0338   25.4221 C    0  0  0  0  0  0  0  0  0  0  0  0
    6.1794   11.1398   26.4309 C    0  0  0  0  0  0  0  0  0  0  0  0
    5.8808   12.3384   27.0699 C    0  0  0  0  0  0  0  0  0  0  0  0
    6.5659   13.4741   26.6734 C    0  0  0  0  0  0  0  0  0  0  0  0
    7.5364   13.3906   25.6443 C    0  0  0  0  0  0  0  0  0  0  0  0
    8.2513   14.7168   25.3185 C    0  0  0  0  0  0  0  0  0  0  0  0
    8.0041   15.1699   23.8665 C    0  0  0  0  0  0  0  0  0  0  0  0
    6.8980   15.2269   23.3532 O    0  0  0  0  0  0  0  0  0  0  0  0
    9.1297   15.4529   23.1030 N    0  0  0  0  0  0  0  0  0  0  0  0
    9.0241   15.7542   21.7141 C    0  0  0  0  0  0  0  0  0  0  0  0
   10.3440   15.4678   20.9095 C    0  0  0  0  0  0  0  0  0  0  0  0
   10.4247   15.6695   19.4530 C    0  0  0  0  0  0  0  0  0  0  0  0
   11.2332   14.6728   18.9368 N    0  0  0  0  0  0  0  0  0  0  0  0
    9.8325   16.5644   18.9571 O    0  0  0  0  0  0  0  0  0  0  0  0
   11.6589   15.9484   21.4616 C    0  0  0  0  0  0  0  0  0  0  0  0
   11.6571   15.7569   22.9613 C    0  0  0  0  0  0  0  0  0  0  0  0
   11.1833   14.6065   23.7669 C    0  0  0  0  0  0  0  0  0  0  0  0
   10.4018   15.8345   23.7441 C    0  0  0  0  0  0  0  0  0  0  0  0
    8.7788    9.4172   23.3790 H    0  0  0  0  0  0  0  0  0  0  0  0
    9.9034    9.7881   24.6891 H    0  0  0  0  0  0  0  0  0  0  0  0
   10.4250   10.0726   23.0244 H    0  0  0  0  0  0  0  0  0  0  0  0
    7.2609   10.0897   24.8997 H    0  0  0  0  0  0  0  0  0  0  0  0
    5.5992   10.2687   26.6951 H    0  0  0  0  0  0  0  0  0  0  0  0
    5.1023   12.3896   27.8322 H    0  0  0  0  0  0  0  0  0  0  0  0
    6.3163   14.4139   27.1656 H    0  0  0  0  0  0  0  0  0  0  0  0
    9.3124   14.5774   25.5573 H    0  0  0  0  0  0  0  0  0  0  0  0
    7.9582   15.5438   25.9651 H    0  0  0  0  0  0  0  0  0  0  0  0
    8.7072   16.7943   21.7489 H    0  0  0  0  0  0  0  0  0  0  0  0
    8.2665   15.0665   21.2436 H    0  0  0  0  0  0  0  0  0  0  0  0
   10.3465   14.3721   20.9528 H    0  0  0  0  0  0  0  0  0  0  0  0
   11.5120   14.6725   18.0020 H    0  0  0  0  0  0  0  0  0  0  0  0
   11.5304   13.9300   19.5765 H    0  0  0  0  0  0  0  0  0  0  0  0
   11.7345   16.9779   21.2090 H    0  0  0  0  0  0  0  0  0  0  0  0
   12.4512   15.4061   20.9490 H    0  0  0  0  0  0  0  0  0  0  0  0
   12.5518   16.1854   23.3648 H    0  0  0  0  0  0  0  0  0  0  0  0
   11.8166   14.3838   24.5850 H    0  0  0  0  0  0  0  0  0  0  0  0
   10.9947   13.7002   23.1698 H    0  0  0  0  0  0  0  0  0  0  0  0
   10.1311   16.4855   24.6033 H    0  0  0  0  0  0  0  0  0  0  0  0
  9 10  1  0  0  0  0
  8  9  1  0  0  0  0
  7  8  2  0  0  0  0
  6  7  1  0  0  0  0
  5  6  2  0  0  0  0
  4  5  1  0  0  0  0
  3  4  2  0  0  0  0
  2  3  1  0  0  0  0
  1  2  1  0  0  0  0
 22  1  1  0  0  0  0
 23  1  1  0  0  0  0
 24  1  1  0  0  0  0
 25  4  1  0  0  0  0
 26  5  1  0  0  0  0
 27  6  1  0  0  0  0
 28  7  1  0  0  0  0
 29  9  1  0  0  0  0
 30  9  1  0  0  0  0
 11 10  2  0  0  0  0
 12 10  1  0  0  0  0
 13 12  1  0  0  0  0
 14 13  1  0  0  0  0
 31 13  1  0  0  0  0
 32 13  1  0  0  0  0
 15 14  1  0  0  0  0
 18 14  1  0  0  0  0
 33 14  1  0  0  0  0
 16 15  1  0  0  0  0
 17 15  2  0  0  0  0
 34 16  1  0  0  0  0
 35 16  1  0  0  0  0
 36 18  1  0  0  0  0
 37 18  1  0  0  0  0
 19 18  1  0  0  0  0
 20 19  1  0  0  0  0
 38 19  1  0  0  0  0
 39 20  1  0  0  0  0
 40 20  1  0  0  0  0
 21 20  1  0  0  0  0
 41 21  1  0  0  0  0
  8  3  1  0  0  0  0
 21 12  1  0  0  0  0
 21 19  1  0  0  0  0
M  END
>  <FittedScore>
-25.71

$$$$
