A71EV2A-x4451b_best-RMSD
  FITTED

 43 45     0  0  0  0  0  0  0999 V2000
    7.6710   13.2030   23.0955 O    0  0  0  0  0  0  0  0  0  0  0  0
    8.4877   13.8342   23.7496 C    0  0  0  0  0  0  0  0  0  0  0  0
    9.0231   14.9966   23.2311 N    0  0  0  0  0  0  0  0  0  0  0  0
    9.8527   16.0142   23.9557 C    0  0  0  0  0  0  0  0  0  0  0  0
   11.3255   16.0069   23.4619 C    0  0  0  0  0  0  0  0  0  0  0  0
   11.3922   16.2838   21.9357 C    0  0  0  0  0  0  0  0  0  0  0  0
    8.9880   15.3479   21.7748 C    0  0  0  0  0  0  0  0  0  0  0  0
   10.4188   15.3653   21.1351 C    0  0  0  0  0  0  0  0  0  0  0  0
   10.3802   15.8104   19.6712 C    0  0  0  0  0  0  0  0  0  0  0  0
    9.8505   16.8442   19.3085 O    0  0  0  0  0  0  0  0  0  0  0  0
   10.7441   14.8799   18.7663 N    0  0  0  0  0  0  0  0  0  0  0  0
    9.0110   13.2691   25.1045 C    0  0  0  0  0  0  0  0  0  0  0  0
    8.0522   13.5126   26.2169 N    0  0  0  0  0  0  0  0  0  0  0  0
    8.4472   14.3217   27.2541 N    0  0  0  0  0  0  0  0  0  0  0  0
    7.1443   14.4913   27.9325 C    0  0  0  0  0  0  0  0  0  0  0  0
    6.1327   13.8053   27.2922 C    0  0  0  0  0  0  0  0  0  0  0  0
    6.7181   13.1946   26.2128 C    0  0  0  0  0  0  0  0  0  0  0  0
    9.4624   11.7890   25.0439 C    0  0  0  0  0  0  0  0  0  0  0  0
   10.7974   11.4468   25.3665 C    0  0  0  0  0  0  0  0  0  0  0  0
   11.2615   10.1322   25.2177 C    0  0  0  0  0  0  0  0  0  0  0  0
   10.4089    9.1471   24.7121 C    0  0  0  0  0  0  0  0  0  0  0  0
    9.0695    9.4494   24.4488 C    0  0  0  0  0  0  0  0  0  0  0  0
    8.5947   10.7538   24.6319 C    0  0  0  0  0  0  0  0  0  0  0  0
    9.4183   17.0072   23.8162 H    0  0  0  0  0  0  0  0  0  0  0  0
    9.8304   15.9003   25.0351 H    0  0  0  0  0  0  0  0  0  0  0  0
   11.8993   16.7667   23.9870 H    0  0  0  0  0  0  0  0  0  0  0  0
   11.7830   15.0411   23.6909 H    0  0  0  0  0  0  0  0  0  0  0  0
   11.1155   17.3286   21.7559 H    0  0  0  0  0  0  0  0  0  0  0  0
   12.4162   16.1529   21.5712 H    0  0  0  0  0  0  0  0  0  0  0  0
    8.5305   16.3341   21.6556 H    0  0  0  0  0  0  0  0  0  0  0  0
    8.3643   14.6661   21.1866 H    0  0  0  0  0  0  0  0  0  0  0  0
   10.8040   14.3380   21.1920 H    0  0  0  0  0  0  0  0  0  0  0  0
   10.9146   13.9158   19.0584 H    0  0  0  0  0  0  0  0  0  0  0  0
   10.6817   15.1101   17.7748 H    0  0  0  0  0  0  0  0  0  0  0  0
    9.9450   13.7803   25.3381 H    0  0  0  0  0  0  0  0  0  0  0  0
    7.0313   15.1126   28.8156 H    0  0  0  0  0  0  0  0  0  0  0  0
    5.0856   13.7664   27.5756 H    0  0  0  0  0  0  0  0  0  0  0  0
    6.2106   12.5707   25.4817 H    0  0  0  0  0  0  0  0  0  0  0  0
   11.4988   12.1985   25.7147 H    0  0  0  0  0  0  0  0  0  0  0  0
   12.2923    9.8917   25.4540 H    0  0  0  0  0  0  0  0  0  0  0  0
   10.7797    8.1360   24.5535 H    0  0  0  0  0  0  0  0  0  0  0  0
    8.3994    8.6714   24.0845 H    0  0  0  0  0  0  0  0  0  0  0  0
    7.5484   10.9512   24.4010 H    0  0  0  0  0  0  0  0  0  0  0  0
  2  1  2  0  0  0  0
  3  2  1  0  0  0  0
  4  3  1  0  0  0  0
 24  4  1  0  0  0  0
 25  4  1  0  0  0  0
  5  4  1  0  0  0  0
 26  5  1  0  0  0  0
 27  5  1  0  0  0  0
  6  5  1  0  0  0  0
 28  6  1  0  0  0  0
 29  6  1  0  0  0  0
  7  3  1  0  0  0  0
 30  7  1  0  0  0  0
 31  7  1  0  0  0  0
  8  6  1  0  0  0  0
  9  8  1  0  0  0  0
 32  8  1  0  0  0  0
 10  9  2  0  0  0  0
 11  9  1  0  0  0  0
 33 11  1  0  0  0  0
 34 11  1  0  0  0  0
 12  2  1  0  0  0  0
 13 12  1  0  0  0  0
 35 12  1  0  0  0  0
 17 13  1  0  0  0  0
 14 13  1  0  0  0  0
 15 14  2  0  0  0  0
 36 15  1  0  0  0  0
 16 15  1  0  0  0  0
 37 16  1  0  0  0  0
 38 17  1  0  0  0  0
 18 12  1  0  0  0  0
 23 18  2  0  0  0  0
 19 18  1  0  0  0  0
 39 19  1  0  0  0  0
 20 19  2  0  0  0  0
 40 20  1  0  0  0  0
 21 20  1  0  0  0  0
 41 21  1  0  0  0  0
 22 21  2  0  0  0  0
 42 22  1  0  0  0  0
 43 23  1  0  0  0  0
  8  7  1  0  0  0  0
 17 16  2  0  0  0  0
 23 22  1  0  0  0  0
M  END
>  <FittedScore>
-35.19

$$$$
