A71EV2A-x4451b_lowest-energy
  FITTED

 43 45     0  0  0  0  0  0  0999 V2000
    7.4902   12.9628   22.9773 O    0  0  0  0  0  0  0  0  0  0  0  0
    8.2407   13.6317   23.6756 C    0  0  0  0  0  0  0  0  0  0  0  0
    8.8678   14.7450   23.1423 N    0  0  0  0  0  0  0  0  0  0  0  0
    9.5270   15.8697   23.8925 C    0  0  0  0  0  0  0  0  0  0  0  0
   11.0171   16.0720   23.4946 C    0  0  0  0  0  0  0  0  0  0  0  0
   11.1311   16.3899   21.9837 C    0  0  0  0  0  0  0  0  0  0  0  0
    8.8955   15.0587   21.6764 C    0  0  0  0  0  0  0  0  0  0  0  0
   10.3336   15.3679   21.1160 C    0  0  0  0  0  0  0  0  0  0  0  0
   10.2697   15.8031   19.6547 C    0  0  0  0  0  0  0  0  0  0  0  0
    9.7963   16.8672   19.3006 O    0  0  0  0  0  0  0  0  0  0  0  0
   10.5550   14.8539   18.7515 N    0  0  0  0  0  0  0  0  0  0  0  0
    8.4172   13.2846   25.1825 C    0  0  0  0  0  0  0  0  0  0  0  0
    7.6968   12.0547   25.6185 N    0  0  0  0  0  0  0  0  0  0  0  0
    8.1211   10.8140   25.2119 N    0  0  0  0  0  0  0  0  0  0  0  0
    7.1030    9.9922   25.8926 C    0  0  0  0  0  0  0  0  0  0  0  0
    6.1997   10.7540   26.6034 C    0  0  0  0  0  0  0  0  0  0  0  0
    6.5914   12.0556   26.4223 C    0  0  0  0  0  0  0  0  0  0  0  0
    9.8858   13.1942   25.6631 C    0  0  0  0  0  0  0  0  0  0  0  0
   10.2755   13.8472   26.8518 C    0  0  0  0  0  0  0  0  0  0  0  0
   11.6130   13.8200   27.2778 C    0  0  0  0  0  0  0  0  0  0  0  0
   12.5718   13.1191   26.5369 C    0  0  0  0  0  0  0  0  0  0  0  0
   12.1974   12.4614   25.3567 C    0  0  0  0  0  0  0  0  0  0  0  0
   10.8650   12.5059   24.9176 C    0  0  0  0  0  0  0  0  0  0  0  0
    8.9766   16.7954   23.6928 H    0  0  0  0  0  0  0  0  0  0  0  0
    9.4657   15.7776   24.9692 H    0  0  0  0  0  0  0  0  0  0  0  0
   11.4471   16.8896   24.0741 H    0  0  0  0  0  0  0  0  0  0  0  0
   11.5966   15.1771   23.7276 H    0  0  0  0  0  0  0  0  0  0  0  0
   10.7705   17.4062   21.8102 H    0  0  0  0  0  0  0  0  0  0  0  0
   12.1854   16.3864   21.6825 H    0  0  0  0  0  0  0  0  0  0  0  0
    8.2101   15.8921   21.4890 H    0  0  0  0  0  0  0  0  0  0  0  0
    8.4871   14.2421   21.0798 H    0  0  0  0  0  0  0  0  0  0  0  0
   10.9014   14.4320   21.1746 H    0  0  0  0  0  0  0  0  0  0  0  0
   10.5101   15.0832   17.7670 H    0  0  0  0  0  0  0  0  0  0  0  0
   10.7530   13.8990   19.0411 H    0  0  0  0  0  0  0  0  0  0  0  0
    7.9497   14.1249   25.7052 H    0  0  0  0  0  0  0  0  0  0  0  0
    7.1151    8.9084   25.8233 H    0  0  0  0  0  0  0  0  0  0  0  0
    5.3573   10.3950   27.1884 H    0  0  0  0  0  0  0  0  0  0  0  0
    6.1120   12.9389   26.8371 H    0  0  0  0  0  0  0  0  0  0  0  0
    9.5465   14.3929   27.4453 H    0  0  0  0  0  0  0  0  0  0  0  0
   11.9000   14.3422   28.1849 H    0  0  0  0  0  0  0  0  0  0  0  0
   13.6070   13.0898   26.8739 H    0  0  0  0  0  0  0  0  0  0  0  0
   12.9376   11.9136   24.7818 H    0  0  0  0  0  0  0  0  0  0  0  0
   10.5981   11.9992   23.9929 H    0  0  0  0  0  0  0  0  0  0  0  0
  2  1  2  0  0  0  0
  3  2  1  0  0  0  0
  4  3  1  0  0  0  0
 24  4  1  0  0  0  0
 25  4  1  0  0  0  0
  5  4  1  0  0  0  0
 26  5  1  0  0  0  0
 27  5  1  0  0  0  0
  6  5  1  0  0  0  0
 28  6  1  0  0  0  0
 29  6  1  0  0  0  0
  7  3  1  0  0  0  0
 30  7  1  0  0  0  0
 31  7  1  0  0  0  0
  8  6  1  0  0  0  0
  9  8  1  0  0  0  0
 32  8  1  0  0  0  0
 10  9  2  0  0  0  0
 11  9  1  0  0  0  0
 33 11  1  0  0  0  0
 34 11  1  0  0  0  0
 12  2  1  0  0  0  0
 13 12  1  0  0  0  0
 35 12  1  0  0  0  0
 17 13  1  0  0  0  0
 14 13  1  0  0  0  0
 15 14  2  0  0  0  0
 36 15  1  0  0  0  0
 16 15  1  0  0  0  0
 37 16  1  0  0  0  0
 38 17  1  0  0  0  0
 18 12  1  0  0  0  0
 23 18  2  0  0  0  0
 19 18  1  0  0  0  0
 39 19  1  0  0  0  0
 20 19  2  0  0  0  0
 40 20  1  0  0  0  0
 21 20  1  0  0  0  0
 41 21  1  0  0  0  0
 22 21  2  0  0  0  0
 42 22  1  0  0  0  0
 43 23  1  0  0  0  0
  8  7  1  0  0  0  0
 17 16  2  0  0  0  0
 23 22  1  0  0  0  0
M  END
>  <FittedScore>
-31.57

$$$$
