A71EV2A-x4373a_lowest-energy
  FITTED

 39 41     0  0  0  0  0  0  0999 V2000
    7.4097   13.3572   22.6641 O    0  0  0  0  0  0  0  0  0  0  0  0
    8.2625   13.8635   23.3805 C    0  0  0  0  0  0  0  0  0  0  0  0
    9.0568   14.9068   22.9394 N    0  0  0  0  0  0  0  0  0  0  0  0
    9.9426   15.7836   23.7878 C    0  0  0  0  0  0  0  0  0  0  0  0
   11.3985   15.8807   23.2550 C    0  0  0  0  0  0  0  0  0  0  0  0
   11.4390   16.3727   21.7866 C    0  0  0  0  0  0  0  0  0  0  0  0
    9.0706   15.3864   21.5162 C    0  0  0  0  0  0  0  0  0  0  0  0
   10.5063   15.4969   20.9094 C    0  0  0  0  0  0  0  0  0  0  0  0
   10.4909   15.9702   19.4620 C    0  0  0  0  0  0  0  0  0  0  0  0
   10.0488   17.0427   19.1038 O    0  0  0  0  0  0  0  0  0  0  0  0
   10.8578   15.0572   18.5503 N    0  0  0  0  0  0  0  0  0  0  0  0
    8.4887   13.3111   24.8008 C    0  0  0  0  0  0  0  0  0  0  0  0
    7.8159   11.9671   25.0704 C    0  0  0  0  0  0  0  0  0  0  0  0
    8.3236   10.7822   24.5126 C    0  0  0  0  0  0  0  0  0  0  0  0
    9.4482   10.6048   23.7493 O    0  0  0  0  0  0  0  0  0  0  0  0
    9.5436    9.1788   23.4817 C    0  0  0  0  0  0  0  0  0  0  0  0
    8.3687    8.5708   24.0774 O    0  0  0  0  0  0  0  0  0  0  0  0
    7.6933    9.5726   24.7081 C    0  0  0  0  0  0  0  0  0  0  0  0
    6.5337    9.4682   25.4764 C    0  0  0  0  0  0  0  0  0  0  0  0
    6.0205   10.6296   26.0746 C    0  0  0  0  0  0  0  0  0  0  0  0
    6.6525   11.8740   25.8672 C    0  0  0  0  0  0  0  0  0  0  0  0
    9.5091   16.7882   23.8203 H    0  0  0  0  0  0  0  0  0  0  0  0
    9.9975   15.4814   24.8314 H    0  0  0  0  0  0  0  0  0  0  0  0
   11.9739   16.5646   23.8817 H    0  0  0  0  0  0  0  0  0  0  0  0
   11.8885   14.9058   23.3277 H    0  0  0  0  0  0  0  0  0  0  0  0
   11.1574   17.4322   21.7319 H    0  0  0  0  0  0  0  0  0  0  0  0
   12.4643   16.2982   21.4079 H    0  0  0  0  0  0  0  0  0  0  0  0
    8.5712   16.3597   21.4738 H    0  0  0  0  0  0  0  0  0  0  0  0
    8.4863   14.7418   20.8551 H    0  0  0  0  0  0  0  0  0  0  0  0
   10.9254   14.4854   20.9321 H    0  0  0  0  0  0  0  0  0  0  0  0
   10.7777   15.2773   17.5671 H    0  0  0  0  0  0  0  0  0  0  0  0
   11.0405   14.0961   18.8363 H    0  0  0  0  0  0  0  0  0  0  0  0
    8.1427   14.0486   25.5305 H    0  0  0  0  0  0  0  0  0  0  0  0
    9.5592   13.1722   24.9855 H    0  0  0  0  0  0  0  0  0  0  0  0
   10.4436    8.7758   23.9541 H    0  0  0  0  0  0  0  0  0  0  0  0
    9.5729    8.9862   22.4046 H    0  0  0  0  0  0  0  0  0  0  0  0
    6.0331    8.5077   25.5965 H    0  0  0  0  0  0  0  0  0  0  0  0
    5.1164   10.5762   26.6751 H    0  0  0  0  0  0  0  0  0  0  0  0
    6.2254   12.7660   26.3186 H    0  0  0  0  0  0  0  0  0  0  0  0
  2  1  2  0  0  0  0
  3  2  1  0  0  0  0
  4  3  1  0  0  0  0
 22  4  1  0  0  0  0
 23  4  1  0  0  0  0
  5  4  1  0  0  0  0
 24  5  1  0  0  0  0
 25  5  1  0  0  0  0
  6  5  1  0  0  0  0
 26  6  1  0  0  0  0
 27  6  1  0  0  0  0
  7  3  1  0  0  0  0
 28  7  1  0  0  0  0
 29  7  1  0  0  0  0
  8  6  1  0  0  0  0
  9  8  1  0  0  0  0
 30  8  1  0  0  0  0
 10  9  2  0  0  0  0
 11  9  1  0  0  0  0
 31 11  1  0  0  0  0
 32 11  1  0  0  0  0
 12  2  1  0  0  0  0
 33 12  1  0  0  0  0
 34 12  1  0  0  0  0
 13 12  1  0  0  0  0
 21 13  2  0  0  0  0
 14 13  1  0  0  0  0
 15 14  1  0  0  0  0
 16 15  1  0  0  0  0
 35 16  1  0  0  0  0
 36 16  1  0  0  0  0
 17 16  1  0  0  0  0
 18 14  2  0  0  0  0
 19 18  1  0  0  0  0
 37 19  1  0  0  0  0
 20 19  2  0  0  0  0
 38 20  1  0  0  0  0
 39 21  1  0  0  0  0
  8  7  1  0  0  0  0
 18 17  1  0  0  0  0
 21 20  1  0  0  0  0
M  END
>  <FittedScore>
-35.03

$$$$
