A71EV2A-x4373a_best-RMSD
  FITTED

 39 41     0  0  0  0  0  0  0999 V2000
    7.3284   13.2690   22.7273 O    0  0  0  0  0  0  0  0  0  0  0  0
    8.1135   13.8518   23.4637 C    0  0  0  0  0  0  0  0  0  0  0  0
    8.8215   14.9600   23.0371 N    0  0  0  0  0  0  0  0  0  0  0  0
    9.7099   15.8404   23.8792 C    0  0  0  0  0  0  0  0  0  0  0  0
   11.1755   15.8919   23.3663 C    0  0  0  0  0  0  0  0  0  0  0  0
   11.2485   16.3290   21.8807 C    0  0  0  0  0  0  0  0  0  0  0  0
    8.8341   15.4416   21.6189 C    0  0  0  0  0  0  0  0  0  0  0  0
   10.2740   15.4881   21.0070 C    0  0  0  0  0  0  0  0  0  0  0  0
   10.2921   15.9746   19.5594 C    0  0  0  0  0  0  0  0  0  0  0  0
    9.9040   17.0685   19.2017 O    0  0  0  0  0  0  0  0  0  0  0  0
   10.7301   15.0869   18.6483 N    0  0  0  0  0  0  0  0  0  0  0  0
    8.3822   13.3079   24.8772 C    0  0  0  0  0  0  0  0  0  0  0  0
    7.7378   11.9580   25.1666 C    0  0  0  0  0  0  0  0  0  0  0  0
    8.2676   10.7740   24.6268 C    0  0  0  0  0  0  0  0  0  0  0  0
    9.3902   10.6044   23.8558 O    0  0  0  0  0  0  0  0  0  0  0  0
    9.4453    9.1870   23.5203 C    0  0  0  0  0  0  0  0  0  0  0  0
    8.3576    8.5550   24.2455 O    0  0  0  0  0  0  0  0  0  0  0  0
    7.6597    9.5585   24.8508 C    0  0  0  0  0  0  0  0  0  0  0  0
    6.5067    9.4490   25.6331 C    0  0  0  0  0  0  0  0  0  0  0  0
    5.9667   10.6140   26.2011 C    0  0  0  0  0  0  0  0  0  0  0  0
    6.5723   11.8637   25.9599 C    0  0  0  0  0  0  0  0  0  0  0  0
    9.2979   16.8542   23.8827 H    0  0  0  0  0  0  0  0  0  0  0  0
    9.7363   15.5697   24.9335 H    0  0  0  0  0  0  0  0  0  0  0  0
   11.7545   16.5881   23.9768 H    0  0  0  0  0  0  0  0  0  0  0  0
   11.6478   14.9121   23.4835 H    0  0  0  0  0  0  0  0  0  0  0  0
   11.0151   17.3957   21.7964 H    0  0  0  0  0  0  0  0  0  0  0  0
   12.2697   16.1945   21.5140 H    0  0  0  0  0  0  0  0  0  0  0  0
    8.3887   16.4404   21.5865 H    0  0  0  0  0  0  0  0  0  0  0  0
    8.2033   14.8397   20.9587 H    0  0  0  0  0  0  0  0  0  0  0  0
   10.6456   14.4577   21.0321 H    0  0  0  0  0  0  0  0  0  0  0  0
   10.9196   14.1253   18.9224 H    0  0  0  0  0  0  0  0  0  0  0  0
   10.6862   15.3180   17.6619 H    0  0  0  0  0  0  0  0  0  0  0  0
    8.0353   14.0406   25.6118 H    0  0  0  0  0  0  0  0  0  0  0  0
    9.4589   13.1916   25.0361 H    0  0  0  0  0  0  0  0  0  0  0  0
   10.4082    8.7610   23.8098 H    0  0  0  0  0  0  0  0  0  0  0  0
    9.2889    9.0501   22.4478 H    0  0  0  0  0  0  0  0  0  0  0  0
    6.0459    8.4782   25.8085 H    0  0  0  0  0  0  0  0  0  0  0  0
    5.0762   10.5527   26.8205 H    0  0  0  0  0  0  0  0  0  0  0  0
    6.1265   12.7582   26.3887 H    0  0  0  0  0  0  0  0  0  0  0  0
  2  1  2  0  0  0  0
  3  2  1  0  0  0  0
  4  3  1  0  0  0  0
 22  4  1  0  0  0  0
 23  4  1  0  0  0  0
  5  4  1  0  0  0  0
 24  5  1  0  0  0  0
 25  5  1  0  0  0  0
  6  5  1  0  0  0  0
 26  6  1  0  0  0  0
 27  6  1  0  0  0  0
  7  3  1  0  0  0  0
 28  7  1  0  0  0  0
 29  7  1  0  0  0  0
  8  6  1  0  0  0  0
  9  8  1  0  0  0  0
 30  8  1  0  0  0  0
 10  9  2  0  0  0  0
 11  9  1  0  0  0  0
 31 11  1  0  0  0  0
 32 11  1  0  0  0  0
 12  2  1  0  0  0  0
 33 12  1  0  0  0  0
 34 12  1  0  0  0  0
 13 12  1  0  0  0  0
 21 13  2  0  0  0  0
 14 13  1  0  0  0  0
 15 14  1  0  0  0  0
 16 15  1  0  0  0  0
 35 16  1  0  0  0  0
 36 16  1  0  0  0  0
 17 16  1  0  0  0  0
 18 14  2  0  0  0  0
 19 18  1  0  0  0  0
 37 19  1  0  0  0  0
 20 19  2  0  0  0  0
 38 20  1  0  0  0  0
 39 21  1  0  0  0  0
  8  7  1  0  0  0  0
 18 17  1  0  0  0  0
 21 20  1  0  0  0  0
M  END
>  <FittedScore>
-34.89

$$$$
