A71EV2A-x6895a_best-RMSD
  FITTED

 60 63     0  0  0  0  0  0  0999 V2000
    9.6419    8.5385   23.3818 C    0  0  0  0  0  0  0  0  0  0  0  0
    9.5218   10.2861   23.8475 S    0  0  0  0  0  0  0  0  0  0  0  0
    8.1074   10.4607   24.9381 C    0  0  0  0  0  0  0  0  0  0  0  0
    7.4087    9.3381   25.2512 N    0  0  0  0  0  0  0  0  0  0  0  0
    6.3445    9.4527   26.0858 C    0  0  0  0  0  0  0  0  0  0  0  0
    5.8964   10.6192   26.6040 N    0  0  0  0  0  0  0  0  0  0  0  0
    6.5381   11.7762   26.2677 C    0  0  0  0  0  0  0  0  0  0  0  0
    5.9731   12.9422   26.7762 N    0  0  0  0  0  0  0  0  0  0  0  0
    4.5619   13.1672   27.2392 C    0  0  0  0  0  0  0  0  0  0  0  0
    4.2194   14.4373   26.3850 C    0  0  0  0  0  0  0  0  0  0  0  0
    3.2866   14.2274   25.1690 C    0  0  0  0  0  0  0  0  0  0  0  0
    1.8419   14.6475   25.4897 C    0  0  0  0  0  0  0  0  0  0  0  0
    0.7481   14.1206   24.5020 C    0  0  0  0  0  0  0  0  0  0  0  0
   -0.1963   14.1005   25.7498 C    0  0  0  0  0  0  0  0  0  0  0  0
    1.0897   13.8091   26.5832 C    0  0  0  0  0  0  0  0  0  0  0  0
    5.7278   14.2320   26.0638 C    0  0  0  0  0  0  0  0  0  0  0  0
    7.7154   11.7317   25.4530 C    0  0  0  0  0  0  0  0  0  0  0  0
    8.5442   12.9828   25.0976 C    0  0  0  0  0  0  0  0  0  0  0  0
    8.2458   13.5558   23.7005 C    0  0  0  0  0  0  0  0  0  0  0  0
    7.4603   12.9773   22.9624 O    0  0  0  0  0  0  0  0  0  0  0  0
    8.9540   14.6580   23.2649 N    0  0  0  0  0  0  0  0  0  0  0  0
    9.9920   15.4238   24.0345 C    0  0  0  0  0  0  0  0  0  0  0  0
   11.4042   15.2772   23.4094 C    0  0  0  0  0  0  0  0  0  0  0  0
   11.4143   15.7088   21.9173 C    0  0  0  0  0  0  0  0  0  0  0  0
   10.2557   15.0287   21.1275 C    0  0  0  0  0  0  0  0  0  0  0  0
   10.2072   15.5373   19.6898 C    0  0  0  0  0  0  0  0  0  0  0  0
   10.7320   14.6957   18.7792 N    0  0  0  0  0  0  0  0  0  0  0  0
    9.6541   16.5676   19.3454 O    0  0  0  0  0  0  0  0  0  0  0  0
    8.8849   15.1717   21.8609 C    0  0  0  0  0  0  0  0  0  0  0  0
    8.7426    8.2364   22.8395 H    0  0  0  0  0  0  0  0  0  0  0  0
    9.7563    7.9245   24.2768 H    0  0  0  0  0  0  0  0  0  0  0  0
   10.5120    8.3921   22.7391 H    0  0  0  0  0  0  0  0  0  0  0  0
    5.8156    8.5420   26.3566 H    0  0  0  0  0  0  0  0  0  0  0  0
    4.5191   13.3522   28.3195 H    0  0  0  0  0  0  0  0  0  0  0  0
    3.8807   12.3253   27.0690 H    0  0  0  0  0  0  0  0  0  0  0  0
    3.9879   15.3462   26.9510 H    0  0  0  0  0  0  0  0  0  0  0  0
    3.3370   13.1928   24.8134 H    0  0  0  0  0  0  0  0  0  0  0  0
    3.6360   14.8504   24.3411 H    0  0  0  0  0  0  0  0  0  0  0  0
    1.8060   15.7359   25.6447 H    0  0  0  0  0  0  0  0  0  0  0  0
    0.9404   13.1363   24.0516 H    0  0  0  0  0  0  0  0  0  0  0  0
    0.4583   14.8020   23.6954 H    0  0  0  0  0  0  0  0  0  0  0  0
   -0.9592   13.3141   25.7529 H    0  0  0  0  0  0  0  0  0  0  0  0
   -0.6990   15.0518   25.9687 H    0  0  0  0  0  0  0  0  0  0  0  0
    1.3588   12.7463   26.6524 H    0  0  0  0  0  0  0  0  0  0  0  0
    1.1070   14.2255   27.5952 H    0  0  0  0  0  0  0  0  0  0  0  0
    6.3672   15.0364   26.4465 H    0  0  0  0  0  0  0  0  0  0  0  0
    5.9236   14.1832   24.9914 H    0  0  0  0  0  0  0  0  0  0  0  0
    9.6088   12.7534   25.1760 H    0  0  0  0  0  0  0  0  0  0  0  0
    8.4056   13.7483   25.8600 H    0  0  0  0  0  0  0  0  0  0  0  0
   10.0549   15.1515   25.0846 H    0  0  0  0  0  0  0  0  0  0  0  0
    9.7150   16.4830   24.0505 H    0  0  0  0  0  0  0  0  0  0  0  0
   11.7431   14.2401   23.4963 H    0  0  0  0  0  0  0  0  0  0  0  0
   12.1191   15.8880   23.9660 H    0  0  0  0  0  0  0  0  0  0  0  0
   12.3740   15.4266   21.4737 H    0  0  0  0  0  0  0  0  0  0  0  0
   11.3384   16.7991   21.8438 H    0  0  0  0  0  0  0  0  0  0  0  0
   10.4755   13.9531   21.1189 H    0  0  0  0  0  0  0  0  0  0  0  0
   10.7383   14.9502   17.7992 H    0  0  0  0  0  0  0  0  0  0  0  0
   11.0079   13.7524   19.0601 H    0  0  0  0  0  0  0  0  0  0  0  0
    8.1188   14.6725   21.2606 H    0  0  0  0  0  0  0  0  0  0  0  0
    8.5818   16.2237   21.8822 H    0  0  0  0  0  0  0  0  0  0  0  0
 18 19  1  0  0  0  0
 17 18  1  0  0  0  0
  7 17  2  0  0  0  0
  6  7  1  0  0  0  0
  5  6  2  0  0  0  0
  4  5  1  0  0  0  0
  3  4  2  0  0  0  0
  2  3  1  0  0  0  0
  1  2  1  0  0  0  0
 30  1  1  0  0  0  0
 31  1  1  0  0  0  0
 32  1  1  0  0  0  0
 33  5  1  0  0  0  0
  8  7  1  0  0  0  0
  9  8  1  0  0  0  0
 10  9  1  0  0  0  0
 34  9  1  0  0  0  0
 35  9  1  0  0  0  0
 11 10  1  0  0  0  0
 16 10  1  0  0  0  0
 36 10  1  0  0  0  0
 12 11  1  0  0  0  0
 37 11  1  0  0  0  0
 38 11  1  0  0  0  0
 13 12  1  0  0  0  0
 39 12  1  0  0  0  0
 14 13  1  0  0  0  0
 40 13  1  0  0  0  0
 41 13  1  0  0  0  0
 15 14  1  0  0  0  0
 42 14  1  0  0  0  0
 43 14  1  0  0  0  0
 44 15  1  0  0  0  0
 45 15  1  0  0  0  0
 46 16  1  0  0  0  0
 47 16  1  0  0  0  0
 48 18  1  0  0  0  0
 49 18  1  0  0  0  0
 20 19  2  0  0  0  0
 21 19  1  0  0  0  0
 22 21  1  0  0  0  0
 23 22  1  0  0  0  0
 50 22  1  0  0  0  0
 51 22  1  0  0  0  0
 24 23  1  0  0  0  0
 52 23  1  0  0  0  0
 53 23  1  0  0  0  0
 25 24  1  0  0  0  0
 54 24  1  0  0  0  0
 55 24  1  0  0  0  0
 26 25  1  0  0  0  0
 29 25  1  0  0  0  0
 56 25  1  0  0  0  0
 27 26  1  0  0  0  0
 28 26  2  0  0  0  0
 57 27  1  0  0  0  0
 58 27  1  0  0  0  0
 59 29  1  0  0  0  0
 60 29  1  0  0  0  0
 15 12  1  0  0  0  0
 16  8  1  0  0  0  0
 17  3  1  0  0  0  0
 29 21  1  0  0  0  0
M  END
>  <FittedScore>
-33.32

$$$$
