A71EV2A-x6895a_lowest-energy
  FITTED

 60 63     0  0  0  0  0  0  0999 V2000
    9.5886    8.6523   23.3949 C    0  0  0  0  0  0  0  0  0  0  0  0
    9.4713   10.3780   23.9537 S    0  0  0  0  0  0  0  0  0  0  0  0
    8.0256   10.5044   25.0147 C    0  0  0  0  0  0  0  0  0  0  0  0
    7.3548    9.3600   25.3222 N    0  0  0  0  0  0  0  0  0  0  0  0
    6.2550    9.4492   26.1166 C    0  0  0  0  0  0  0  0  0  0  0  0
    5.7421   10.6059   26.6023 N    0  0  0  0  0  0  0  0  0  0  0  0
    6.3716   11.7717   26.2795 C    0  0  0  0  0  0  0  0  0  0  0  0
    5.7838   12.9525   26.7046 N    0  0  0  0  0  0  0  0  0  0  0  0
    4.5581   13.1765   27.5374 C    0  0  0  0  0  0  0  0  0  0  0  0
    3.7560   14.0874   26.5456 C    0  0  0  0  0  0  0  0  0  0  0  0
    2.5291   13.4218   25.8862 C    0  0  0  0  0  0  0  0  0  0  0  0
    1.9763   14.2666   24.7064 C    0  0  0  0  0  0  0  0  0  0  0  0
    1.4880   13.4584   23.4549 C    0  0  0  0  0  0  0  0  0  0  0  0
    0.4109   14.5710   23.2804 C    0  0  0  0  0  0  0  0  0  0  0  0
    0.4853   14.7359   24.8325 C    0  0  0  0  0  0  0  0  0  0  0  0
    5.1178   13.9258   25.7890 C    0  0  0  0  0  0  0  0  0  0  0  0
    7.5748   11.7635   25.5109 C    0  0  0  0  0  0  0  0  0  0  0  0
    8.3489   13.0565   25.1729 C    0  0  0  0  0  0  0  0  0  0  0  0
    8.1063   13.5789   23.7459 C    0  0  0  0  0  0  0  0  0  0  0  0
    7.3442   12.9704   23.0129 O    0  0  0  0  0  0  0  0  0  0  0  0
    8.8352   14.6566   23.2829 N    0  0  0  0  0  0  0  0  0  0  0  0
    9.8852   15.4184   24.0427 C    0  0  0  0  0  0  0  0  0  0  0  0
   11.2956   15.2490   23.4166 C    0  0  0  0  0  0  0  0  0  0  0  0
   11.3028   15.6780   21.9255 C    0  0  0  0  0  0  0  0  0  0  0  0
   10.1496   14.9885   21.1361 C    0  0  0  0  0  0  0  0  0  0  0  0
   10.1202   15.4873   19.6949 C    0  0  0  0  0  0  0  0  0  0  0  0
   10.6837   14.6626   18.7926 N    0  0  0  0  0  0  0  0  0  0  0  0
    9.6298   16.5492   19.3525 O    0  0  0  0  0  0  0  0  0  0  0  0
    8.7760   15.1421   21.8657 C    0  0  0  0  0  0  0  0  0  0  0  0
    8.6859    8.3753   22.8448 H    0  0  0  0  0  0  0  0  0  0  0  0
    9.7059    7.9918   24.2555 H    0  0  0  0  0  0  0  0  0  0  0  0
   10.4554    8.5401   22.7415 H    0  0  0  0  0  0  0  0  0  0  0  0
    5.7470    8.5243   26.3811 H    0  0  0  0  0  0  0  0  0  0  0  0
    4.8114   13.6893   28.4737 H    0  0  0  0  0  0  0  0  0  0  0  0
    4.0305   12.2660   27.8494 H    0  0  0  0  0  0  0  0  0  0  0  0
    3.5340   15.0961   26.9107 H    0  0  0  0  0  0  0  0  0  0  0  0
    1.7604   13.2720   26.6479 H    0  0  0  0  0  0  0  0  0  0  0  0
    2.7921   12.4195   25.5349 H    0  0  0  0  0  0  0  0  0  0  0  0
    2.6706   15.0779   24.4414 H    0  0  0  0  0  0  0  0  0  0  0  0
    1.0826   12.4567   23.6593 H    0  0  0  0  0  0  0  0  0  0  0  0
    2.2107   13.3610   22.6409 H    0  0  0  0  0  0  0  0  0  0  0  0
   -0.5561   14.2369   22.8859 H    0  0  0  0  0  0  0  0  0  0  0  0
    0.7286   15.4472   22.7015 H    0  0  0  0  0  0  0  0  0  0  0  0
   -0.1866   14.0695   25.3928 H    0  0  0  0  0  0  0  0  0  0  0  0
    0.3373   15.7519   25.2111 H    0  0  0  0  0  0  0  0  0  0  0  0
    5.6850   14.8602   25.7071 H    0  0  0  0  0  0  0  0  0  0  0  0
    5.0284   13.5490   24.7620 H    0  0  0  0  0  0  0  0  0  0  0  0
    9.4116   12.8713   25.3387 H    0  0  0  0  0  0  0  0  0  0  0  0
    8.1122   13.8502   25.8844 H    0  0  0  0  0  0  0  0  0  0  0  0
    9.9475   15.1562   25.0959 H    0  0  0  0  0  0  0  0  0  0  0  0
    9.6223   16.4808   24.0442 H    0  0  0  0  0  0  0  0  0  0  0  0
   11.6188   14.2061   23.4995 H    0  0  0  0  0  0  0  0  0  0  0  0
   12.0234   15.8493   23.9678 H    0  0  0  0  0  0  0  0  0  0  0  0
   12.2638   15.4109   21.4778 H    0  0  0  0  0  0  0  0  0  0  0  0
   11.2131   16.7664   21.8576 H    0  0  0  0  0  0  0  0  0  0  0  0
   10.3698   13.9122   21.1293 H    0  0  0  0  0  0  0  0  0  0  0  0
   10.6987   14.9120   17.8119 H    0  0  0  0  0  0  0  0  0  0  0  0
   10.9701   13.7266   19.0776 H    0  0  0  0  0  0  0  0  0  0  0  0
    8.0137   14.6312   21.2705 H    0  0  0  0  0  0  0  0  0  0  0  0
    8.4650   16.1924   21.8642 H    0  0  0  0  0  0  0  0  0  0  0  0
 18 19  1  0  0  0  0
 17 18  1  0  0  0  0
  7 17  2  0  0  0  0
  6  7  1  0  0  0  0
  5  6  2  0  0  0  0
  4  5  1  0  0  0  0
  3  4  2  0  0  0  0
  2  3  1  0  0  0  0
  1  2  1  0  0  0  0
 30  1  1  0  0  0  0
 31  1  1  0  0  0  0
 32  1  1  0  0  0  0
 33  5  1  0  0  0  0
  8  7  1  0  0  0  0
  9  8  1  0  0  0  0
 10  9  1  0  0  0  0
 34  9  1  0  0  0  0
 35  9  1  0  0  0  0
 11 10  1  0  0  0  0
 16 10  1  0  0  0  0
 36 10  1  0  0  0  0
 12 11  1  0  0  0  0
 37 11  1  0  0  0  0
 38 11  1  0  0  0  0
 13 12  1  0  0  0  0
 39 12  1  0  0  0  0
 14 13  1  0  0  0  0
 40 13  1  0  0  0  0
 41 13  1  0  0  0  0
 15 14  1  0  0  0  0
 42 14  1  0  0  0  0
 43 14  1  0  0  0  0
 44 15  1  0  0  0  0
 45 15  1  0  0  0  0
 46 16  1  0  0  0  0
 47 16  1  0  0  0  0
 48 18  1  0  0  0  0
 49 18  1  0  0  0  0
 20 19  2  0  0  0  0
 21 19  1  0  0  0  0
 22 21  1  0  0  0  0
 23 22  1  0  0  0  0
 50 22  1  0  0  0  0
 51 22  1  0  0  0  0
 24 23  1  0  0  0  0
 52 23  1  0  0  0  0
 53 23  1  0  0  0  0
 25 24  1  0  0  0  0
 54 24  1  0  0  0  0
 55 24  1  0  0  0  0
 26 25  1  0  0  0  0
 29 25  1  0  0  0  0
 56 25  1  0  0  0  0
 27 26  1  0  0  0  0
 28 26  2  0  0  0  0
 57 27  1  0  0  0  0
 58 27  1  0  0  0  0
 59 29  1  0  0  0  0
 60 29  1  0  0  0  0
 15 12  1  0  0  0  0
 16  8  1  0  0  0  0
 17  3  1  0  0  0  0
 29 21  1  0  0  0  0
M  END
>  <FittedScore>
-34.13

$$$$
