A71EV2A-x4654a_lowest-energy
  FITTED

 45 47     0  0  0  0  0  0  0999 V2000
    6.0364   13.4823   25.3109 O    0  0  0  0  0  0  0  0  0  0  0  0
    6.9236   12.8971   26.2792 S    0  0  0  0  0  0  0  0  0  0  0  0
    7.9690   13.7166   26.8314 O    0  0  0  0  0  0  0  0  0  0  0  0
    5.9478   12.2680   27.6208 C    0  0  0  0  0  0  0  0  0  0  0  0
    5.0964   11.0611   27.1901 C    0  0  0  0  0  0  0  0  0  0  0  0
    5.9791    9.8749   26.7446 C    0  0  0  0  0  0  0  0  0  0  0  0
    7.1275   10.1584   25.7650 C    0  0  0  0  0  0  0  0  0  0  0  0
    7.6970    9.0520   25.1102 C    0  0  0  0  0  0  0  0  0  0  0  0
    8.7762    9.1959   24.2361 C    0  0  0  0  0  0  0  0  0  0  0  0
    9.2895   10.4640   23.9814 C    0  0  0  0  0  0  0  0  0  0  0  0
    7.6471   11.4540   25.5057 C    0  0  0  0  0  0  0  0  0  0  0  0
    8.7147   11.5894   24.5828 C    0  0  0  0  0  0  0  0  0  0  0  0
    9.1570   12.8600   24.1145 N    0  0  0  0  0  0  0  0  0  0  0  0
    8.5468   13.5752   23.1390 C    0  0  0  0  0  0  0  0  0  0  0  0
    7.6167   13.1124   22.5060 O    0  0  0  0  0  0  0  0  0  0  0  0
    9.1158   14.7858   22.8433 N    0  0  0  0  0  0  0  0  0  0  0  0
   10.0165   15.6097   23.7228 C    0  0  0  0  0  0  0  0  0  0  0  0
   11.4358   15.7818   23.1226 C    0  0  0  0  0  0  0  0  0  0  0  0
   11.4104   16.2937   21.6551 C    0  0  0  0  0  0  0  0  0  0  0  0
    9.0015   15.3974   21.4876 C    0  0  0  0  0  0  0  0  0  0  0  0
   10.3960   15.4934   20.7899 C    0  0  0  0  0  0  0  0  0  0  0  0
   10.2922   16.0950   19.4016 C    0  0  0  0  0  0  0  0  0  0  0  0
    9.5721   17.0381   19.1304 O    0  0  0  0  0  0  0  0  0  0  0  0
   11.0981   15.5485   18.4780 N    0  0  0  0  0  0  0  0  0  0  0  0
    5.3113   13.0775   27.9830 H    0  0  0  0  0  0  0  0  0  0  0  0
    6.6240   11.9865   28.4332 H    0  0  0  0  0  0  0  0  0  0  0  0
    4.4314   11.3522   26.3710 H    0  0  0  0  0  0  0  0  0  0  0  0
    4.4625   10.7483   28.0219 H    0  0  0  0  0  0  0  0  0  0  0  0
    5.3112    9.1268   26.3055 H    0  0  0  0  0  0  0  0  0  0  0  0
    6.4062    9.4064   27.6362 H    0  0  0  0  0  0  0  0  0  0  0  0
    7.3081    8.0502   25.2904 H    0  0  0  0  0  0  0  0  0  0  0  0
    9.2060    8.3272   23.7444 H    0  0  0  0  0  0  0  0  0  0  0  0
   10.1103   10.5745   23.2757 H    0  0  0  0  0  0  0  0  0  0  0  0
   10.0092   13.2071   24.5261 H    0  0  0  0  0  0  0  0  0  0  0  0
    9.5614   16.5947   23.8671 H    0  0  0  0  0  0  0  0  0  0  0  0
   10.1041   15.1996   24.7282 H    0  0  0  0  0  0  0  0  0  0  0  0
   12.0147   16.4781   23.7357 H    0  0  0  0  0  0  0  0  0  0  0  0
   11.9609   14.8224   23.1560 H    0  0  0  0  0  0  0  0  0  0  0  0
   11.1608   17.3585   21.6324 H    0  0  0  0  0  0  0  0  0  0  0  0
   12.4104   16.2092   21.2191 H    0  0  0  0  0  0  0  0  0  0  0  0
    8.5317   16.3820   21.5839 H    0  0  0  0  0  0  0  0  0  0  0  0
    8.3244   14.8379   20.8332 H    0  0  0  0  0  0  0  0  0  0  0  0
   10.7692   14.4674   20.7049 H    0  0  0  0  0  0  0  0  0  0  0  0
   10.9079   15.7232   17.5023 H    0  0  0  0  0  0  0  0  0  0  0  0
   11.7505   14.8105   18.7233 H    0  0  0  0  0  0  0  0  0  0  0  0
 12 13  1  0  0  0  0
 10 12  1  0  0  0  0
  9 10  2  0  0  0  0
  8  9  1  0  0  0  0
  7  8  2  0  0  0  0
 11  7  1  0  0  0  0
  6  7  1  0  0  0  0
  5  6  1  0  0  0  0
  4  5  1  0  0  0  0
  2  4  1  0  0  0  0
  1  2  2  0  0  0  0
  3  2  2  0  0  0  0
 25  4  1  0  0  0  0
 26  4  1  0  0  0  0
 27  5  1  0  0  0  0
 28  5  1  0  0  0  0
 29  6  1  0  0  0  0
 30  6  1  0  0  0  0
 31  8  1  0  0  0  0
 32  9  1  0  0  0  0
 33 10  1  0  0  0  0
 34 13  1  0  0  0  0
 14 13  1  0  0  0  0
 15 14  2  0  0  0  0
 16 14  1  0  0  0  0
 17 16  1  0  0  0  0
 35 17  1  0  0  0  0
 36 17  1  0  0  0  0
 18 17  1  0  0  0  0
 37 18  1  0  0  0  0
 38 18  1  0  0  0  0
 19 18  1  0  0  0  0
 39 19  1  0  0  0  0
 40 19  1  0  0  0  0
 20 16  1  0  0  0  0
 41 20  1  0  0  0  0
 42 20  1  0  0  0  0
 21 19  1  0  0  0  0
 22 21  1  0  0  0  0
 43 21  1  0  0  0  0
 23 22  2  0  0  0  0
 24 22  1  0  0  0  0
 44 24  1  0  0  0  0
 45 24  1  0  0  0  0
 11  2  1  0  0  0  0
 12 11  2  0  0  0  0
 21 20  1  0  0  0  0
M  END
>  <FittedScore>
-36.09

$$$$
