A71EV2A-x4654a_best-RMSD
  FITTED

 45 47     0  0  0  0  0  0  0999 V2000
    5.8541   13.5616   25.5236 O    0  0  0  0  0  0  0  0  0  0  0  0
    6.7192   12.9846   26.5183 S    0  0  0  0  0  0  0  0  0  0  0  0
    7.7622   13.7907   27.0971 O    0  0  0  0  0  0  0  0  0  0  0  0
    5.7129   12.3621   27.8376 C    0  0  0  0  0  0  0  0  0  0  0  0
    4.8229   11.1970   27.3688 C    0  0  0  0  0  0  0  0  0  0  0  0
    5.6678    9.9884   26.9039 C    0  0  0  0  0  0  0  0  0  0  0  0
    6.8711   10.2505   25.9802 C    0  0  0  0  0  0  0  0  0  0  0  0
    7.4346    9.1388   25.3285 C    0  0  0  0  0  0  0  0  0  0  0  0
    8.5395    9.2680   24.4809 C    0  0  0  0  0  0  0  0  0  0  0  0
    9.0911   10.5266   24.2533 C    0  0  0  0  0  0  0  0  0  0  0  0
    7.4346   11.5354   25.7545 C    0  0  0  0  0  0  0  0  0  0  0  0
    8.5304   11.6567   24.8618 C    0  0  0  0  0  0  0  0  0  0  0  0
    8.9937   12.9302   24.4201 N    0  0  0  0  0  0  0  0  0  0  0  0
    8.4207   13.6448   23.4215 C    0  0  0  0  0  0  0  0  0  0  0  0
    7.6175   13.1234   22.6677 O    0  0  0  0  0  0  0  0  0  0  0  0
    8.8945   14.9239   23.2435 N    0  0  0  0  0  0  0  0  0  0  0  0
    9.8490   15.6776   24.1314 C    0  0  0  0  0  0  0  0  0  0  0  0
   11.2670   15.8036   23.4910 C    0  0  0  0  0  0  0  0  0  0  0  0
   11.2328   16.2913   22.0065 C    0  0  0  0  0  0  0  0  0  0  0  0
    8.7699   15.6212   21.9309 C    0  0  0  0  0  0  0  0  0  0  0  0
   10.1429   15.5210   21.1990 C    0  0  0  0  0  0  0  0  0  0  0  0
   10.0638   15.9489   19.7379 C    0  0  0  0  0  0  0  0  0  0  0  0
    9.6414   17.0341   19.3809 O    0  0  0  0  0  0  0  0  0  0  0  0
   10.3265   14.9687   18.8442 N    0  0  0  0  0  0  0  0  0  0  0  0
    5.1024   13.1857   28.2127 H    0  0  0  0  0  0  0  0  0  0  0  0
    6.3705   12.0386   28.6474 H    0  0  0  0  0  0  0  0  0  0  0  0
    4.1771   11.5324   26.5521 H    0  0  0  0  0  0  0  0  0  0  0  0
    4.1621   10.8907   28.1828 H    0  0  0  0  0  0  0  0  0  0  0  0
    4.9858    9.3024   26.3944 H    0  0  0  0  0  0  0  0  0  0  0  0
    6.0196    9.4529   27.7894 H    0  0  0  0  0  0  0  0  0  0  0  0
    7.0235    8.1433   25.4969 H    0  0  0  0  0  0  0  0  0  0  0  0
    8.9712    8.3910   24.0074 H    0  0  0  0  0  0  0  0  0  0  0  0
    9.9290   10.6257   23.5656 H    0  0  0  0  0  0  0  0  0  0  0  0
    9.7455   13.3370   24.9523 H    0  0  0  0  0  0  0  0  0  0  0  0
    9.4501   16.6799   24.3248 H    0  0  0  0  0  0  0  0  0  0  0  0
    9.9375   15.2329   25.1275 H    0  0  0  0  0  0  0  0  0  0  0  0
   11.8744   16.4922   24.0873 H    0  0  0  0  0  0  0  0  0  0  0  0
   11.7652   14.8313   23.5408 H    0  0  0  0  0  0  0  0  0  0  0  0
   11.0458   17.3698   21.9705 H    0  0  0  0  0  0  0  0  0  0  0  0
   12.2126   16.1344   21.5464 H    0  0  0  0  0  0  0  0  0  0  0  0
    8.4786   16.6675   22.0811 H    0  0  0  0  0  0  0  0  0  0  0  0
    7.9743   15.2035   21.3084 H    0  0  0  0  0  0  0  0  0  0  0  0
   10.4338   14.4626   21.2311 H    0  0  0  0  0  0  0  0  0  0  0  0
   10.5215   14.0188   19.1650 H    0  0  0  0  0  0  0  0  0  0  0  0
   10.2823   15.1558   17.8500 H    0  0  0  0  0  0  0  0  0  0  0  0
 12 13  1  0  0  0  0
 10 12  1  0  0  0  0
  9 10  2  0  0  0  0
  8  9  1  0  0  0  0
  7  8  2  0  0  0  0
 11  7  1  0  0  0  0
  6  7  1  0  0  0  0
  5  6  1  0  0  0  0
  4  5  1  0  0  0  0
  2  4  1  0  0  0  0
  1  2  2  0  0  0  0
  3  2  2  0  0  0  0
 25  4  1  0  0  0  0
 26  4  1  0  0  0  0
 27  5  1  0  0  0  0
 28  5  1  0  0  0  0
 29  6  1  0  0  0  0
 30  6  1  0  0  0  0
 31  8  1  0  0  0  0
 32  9  1  0  0  0  0
 33 10  1  0  0  0  0
 34 13  1  0  0  0  0
 14 13  1  0  0  0  0
 15 14  2  0  0  0  0
 16 14  1  0  0  0  0
 17 16  1  0  0  0  0
 35 17  1  0  0  0  0
 36 17  1  0  0  0  0
 18 17  1  0  0  0  0
 37 18  1  0  0  0  0
 38 18  1  0  0  0  0
 19 18  1  0  0  0  0
 39 19  1  0  0  0  0
 40 19  1  0  0  0  0
 20 16  1  0  0  0  0
 41 20  1  0  0  0  0
 42 20  1  0  0  0  0
 21 19  1  0  0  0  0
 22 21  1  0  0  0  0
 43 21  1  0  0  0  0
 23 22  2  0  0  0  0
 24 22  1  0  0  0  0
 44 24  1  0  0  0  0
 45 24  1  0  0  0  0
 11  2  1  0  0  0  0
 12 11  2  0  0  0  0
 21 20  1  0  0  0  0
M  END
>  <FittedScore>
-35.23

$$$$
