A71EV2A-x4935a_best-RMSD
  FITTED

 37 38     0  0  0  0  0  0  0999 V2000
    9.7697   16.8421   19.2568 O    0  0  0  0  0  0  0  0  0  0  0  0
   10.2837   15.8103   19.6429 C    0  0  0  0  0  0  0  0  0  0  0  0
   10.7440   14.9201   18.7551 N    0  0  0  0  0  0  0  0  0  0  0  0
   10.2830   15.3272   21.0935 C    0  0  0  0  0  0  0  0  0  0  0  0
   11.1647   16.2399   21.9941 C    0  0  0  0  0  0  0  0  0  0  0  0
   11.0571   15.8189   23.4794 C    0  0  0  0  0  0  0  0  0  0  0  0
    9.5794   15.6835   23.9297 C    0  0  0  0  0  0  0  0  0  0  0  0
    8.8302   15.1545   21.6417 C    0  0  0  0  0  0  0  0  0  0  0  0
    8.7755   14.7297   23.0825 N    0  0  0  0  0  0  0  0  0  0  0  0
    8.0146   13.6657   23.5431 C    0  0  0  0  0  0  0  0  0  0  0  0
    7.2391   13.0676   22.8103 O    0  0  0  0  0  0  0  0  0  0  0  0
    8.1592   13.2293   25.0132 C    0  0  0  0  0  0  0  0  0  0  0  0
    7.4511   11.9207   25.3814 C    0  0  0  0  0  0  0  0  0  0  0  0
    6.3651   11.8959   26.2494 C    0  0  0  0  0  0  0  0  0  0  0  0
    5.7567   10.2682   26.5519 S    0  0  0  0  0  0  0  0  0  0  0  0
    6.9778    9.6503   25.4404 C    0  0  0  0  0  0  0  0  0  0  0  0
    7.8017   10.6464   24.9219 C    0  0  0  0  0  0  0  0  0  0  0  0
    9.1682   10.3400   23.8084 S    0  0  0  0  0  0  0  0  0  0  0  0
    9.2073    8.5506   23.5013 C    0  0  0  0  0  0  0  0  0  0  0  0
   10.9917   13.9786   19.0416 H    0  0  0  0  0  0  0  0  0  0  0  0
   10.6262   15.1075   17.7674 H    0  0  0  0  0  0  0  0  0  0  0  0
   10.7390   14.3329   21.1428 H    0  0  0  0  0  0  0  0  0  0  0  0
   12.2089   16.1743   21.6711 H    0  0  0  0  0  0  0  0  0  0  0  0
   10.8742   17.2910   21.8884 H    0  0  0  0  0  0  0  0  0  0  0  0
   11.5787   14.8692   23.6346 H    0  0  0  0  0  0  0  0  0  0  0  0
   11.5598   16.5677   24.1021 H    0  0  0  0  0  0  0  0  0  0  0  0
    9.5928   15.4299   24.9873 H    0  0  0  0  0  0  0  0  0  0  0  0
    9.1041   16.6711   23.8917 H    0  0  0  0  0  0  0  0  0  0  0  0
    8.3244   14.4400   20.9887 H    0  0  0  0  0  0  0  0  0  0  0  0
    8.2682   16.0877   21.5344 H    0  0  0  0  0  0  0  0  0  0  0  0
    9.2202   13.1160   25.2610 H    0  0  0  0  0  0  0  0  0  0  0  0
    7.7744   14.0217   25.6631 H    0  0  0  0  0  0  0  0  0  0  0  0
    5.9306   12.7843   26.7055 H    0  0  0  0  0  0  0  0  0  0  0  0
    7.0650    8.5921   25.2219 H    0  0  0  0  0  0  0  0  0  0  0  0
    8.2407    8.2298   23.1082 H    0  0  0  0  0  0  0  0  0  0  0  0
    9.4341    8.0063   24.4208 H    0  0  0  0  0  0  0  0  0  0  0  0
    9.9805    8.3313   22.7632 H    0  0  0  0  0  0  0  0  0  0  0  0
  9 10  1  0  0  0  0
  7  9  1  0  0  0  0
  6  7  1  0  0  0  0
  5  6  1  0  0  0  0
  4  5  1  0  0  0  0
  2  4  1  0  0  0  0
  1  2  2  0  0  0  0
  3  2  1  0  0  0  0
 20  3  1  0  0  0  0
 21  3  1  0  0  0  0
 22  4  1  0  0  0  0
 23  5  1  0  0  0  0
 24  5  1  0  0  0  0
 25  6  1  0  0  0  0
 26  6  1  0  0  0  0
 27  7  1  0  0  0  0
 28  7  1  0  0  0  0
  8  4  1  0  0  0  0
 29  8  1  0  0  0  0
 30  8  1  0  0  0  0
 11 10  2  0  0  0  0
 12 10  1  0  0  0  0
 31 12  1  0  0  0  0
 32 12  1  0  0  0  0
 13 12  1  0  0  0  0
 14 13  2  0  0  0  0
 33 14  1  0  0  0  0
 15 14  1  0  0  0  0
 16 15  1  0  0  0  0
 34 16  1  0  0  0  0
 17 16  2  0  0  0  0
 18 17  1  0  0  0  0
 19 18  1  0  0  0  0
 35 19  1  0  0  0  0
 36 19  1  0  0  0  0
 37 19  1  0  0  0  0
  9  8  1  0  0  0  0
 17 13  1  0  0  0  0
M  END
>  <FittedScore>
-29.14

$$$$
