A71EV2A-x4935a_lowest-energy
  FITTED

 37 38     0  0  0  0  0  0  0999 V2000
    9.7400   16.7728   19.1302 O    0  0  0  0  0  0  0  0  0  0  0  0
   10.2461   15.7507   19.5467 C    0  0  0  0  0  0  0  0  0  0  0  0
   10.7744   14.8709   18.6857 N    0  0  0  0  0  0  0  0  0  0  0  0
   10.2340   15.3058   21.0132 C    0  0  0  0  0  0  0  0  0  0  0  0
   11.0447   16.2930   21.8954 C    0  0  0  0  0  0  0  0  0  0  0  0
   11.0097   15.8358   23.3740 C    0  0  0  0  0  0  0  0  0  0  0  0
    9.5531   15.6290   23.8715 C    0  0  0  0  0  0  0  0  0  0  0  0
    8.7861   15.0984   21.5713 C    0  0  0  0  0  0  0  0  0  0  0  0
    8.7431   14.6792   23.0201 N    0  0  0  0  0  0  0  0  0  0  0  0
    7.9543   13.6378   23.4871 C    0  0  0  0  0  0  0  0  0  0  0  0
    7.1624   13.0672   22.7519 O    0  0  0  0  0  0  0  0  0  0  0  0
    8.0465   13.2274   24.9747 C    0  0  0  0  0  0  0  0  0  0  0  0
    7.4134   11.8827   25.3429 C    0  0  0  0  0  0  0  0  0  0  0  0
    6.3558   11.7728   26.2361 C    0  0  0  0  0  0  0  0  0  0  0  0
    5.8501   10.1074   26.5065 S    0  0  0  0  0  0  0  0  0  0  0  0
    7.0850    9.5913   25.3700 C    0  0  0  0  0  0  0  0  0  0  0  0
    7.8510   10.6411   24.8835 C    0  0  0  0  0  0  0  0  0  0  0  0
    9.2571   10.4463   23.8150 S    0  0  0  0  0  0  0  0  0  0  0  0
    9.2971    8.6827   23.3866 C    0  0  0  0  0  0  0  0  0  0  0  0
   11.0135   13.9409   19.0046 H    0  0  0  0  0  0  0  0  0  0  0  0
   10.7790   15.0616   17.6855 H    0  0  0  0  0  0  0  0  0  0  0  0
   10.7347   14.3296   21.0891 H    0  0  0  0  0  0  0  0  0  0  0  0
   12.0819   16.3381   21.5516 H    0  0  0  0  0  0  0  0  0  0  0  0
   10.6393   17.3070   21.8116 H    0  0  0  0  0  0  0  0  0  0  0  0
   11.5606   14.8959   23.4793 H    0  0  0  0  0  0  0  0  0  0  0  0
   11.5131   16.5733   24.0033 H    0  0  0  0  0  0  0  0  0  0  0  0
    9.6350   15.3208   24.9115 H    0  0  0  0  0  0  0  0  0  0  0  0
    9.0384   16.5953   23.9076 H    0  0  0  0  0  0  0  0  0  0  0  0
    8.2917   14.3682   20.9250 H    0  0  0  0  0  0  0  0  0  0  0  0
    8.2071   16.0216   21.4564 H    0  0  0  0  0  0  0  0  0  0  0  0
    9.0924   13.1590   25.2916 H    0  0  0  0  0  0  0  0  0  0  0  0
    7.5834   14.0212   25.5684 H    0  0  0  0  0  0  0  0  0  0  0  0
    5.8911   12.6159   26.7410 H    0  0  0  0  0  0  0  0  0  0  0  0
    7.2311    8.5439   25.1294 H    0  0  0  0  0  0  0  0  0  0  0  0
    9.4586    8.0892   24.2917 H    0  0  0  0  0  0  0  0  0  0  0  0
   10.1283    8.5003   22.7090 H    0  0  0  0  0  0  0  0  0  0  0  0
    8.3570    8.3845   22.9172 H    0  0  0  0  0  0  0  0  0  0  0  0
  9 10  1  0  0  0  0
  7  9  1  0  0  0  0
  6  7  1  0  0  0  0
  5  6  1  0  0  0  0
  4  5  1  0  0  0  0
  2  4  1  0  0  0  0
  1  2  2  0  0  0  0
  3  2  1  0  0  0  0
 20  3  1  0  0  0  0
 21  3  1  0  0  0  0
 22  4  1  0  0  0  0
 23  5  1  0  0  0  0
 24  5  1  0  0  0  0
 25  6  1  0  0  0  0
 26  6  1  0  0  0  0
 27  7  1  0  0  0  0
 28  7  1  0  0  0  0
  8  4  1  0  0  0  0
 29  8  1  0  0  0  0
 30  8  1  0  0  0  0
 11 10  2  0  0  0  0
 12 10  1  0  0  0  0
 31 12  1  0  0  0  0
 32 12  1  0  0  0  0
 13 12  1  0  0  0  0
 14 13  2  0  0  0  0
 33 14  1  0  0  0  0
 15 14  1  0  0  0  0
 16 15  1  0  0  0  0
 34 16  1  0  0  0  0
 17 16  2  0  0  0  0
 18 17  1  0  0  0  0
 19 18  1  0  0  0  0
 35 19  1  0  0  0  0
 36 19  1  0  0  0  0
 37 19  1  0  0  0  0
  9  8  1  0  0  0  0
 17 13  1  0  0  0  0
M  END
>  <FittedScore>
-29.33

$$$$
