A71EV2A-x4540a_best-RMSD
  FITTED

 36 37     0  0  0  0  0  0  0999 V2000
    6.2897   12.9142   26.4804 O    0  0  0  0  0  0  0  0  0  0  0  0
    6.9717   12.0534   25.9596 C    0  0  0  0  0  0  0  0  0  0  0  0
    6.5823   10.6689   26.0827 C    0  0  0  0  0  0  0  0  0  0  0  0
    5.2646   10.2175   27.1139 CL   0  0  0  0  0  0  0  0  0  0  0  0
    7.2590    9.7026   25.4474 C    0  0  0  0  0  0  0  0  0  0  0  0
    8.3588    9.9547   24.7201 C    0  0  0  0  0  0  0  0  0  0  0  0
    9.3251    8.5529   23.9228 BR   0  0  0  0  0  0  0  0  0  0  0  0
    8.7851   11.2136   24.5913 C    0  0  0  0  0  0  0  0  0  0  0  0
    8.1056   12.3126   25.2095 N    0  0  0  0  0  0  0  0  0  0  0  0
    8.6105   13.6926   24.9830 C    0  0  0  0  0  0  0  0  0  0  0  0
    8.3249   14.2460   23.5746 C    0  0  0  0  0  0  0  0  0  0  0  0
    7.5341   13.6623   22.8491 O    0  0  0  0  0  0  0  0  0  0  0  0
    9.0253   15.3478   23.1254 N    0  0  0  0  0  0  0  0  0  0  0  0
   10.0423   16.1548   23.8885 C    0  0  0  0  0  0  0  0  0  0  0  0
   11.4668   16.0035   23.2851 C    0  0  0  0  0  0  0  0  0  0  0  0
   11.4918   16.3542   21.7668 C    0  0  0  0  0  0  0  0  0  0  0  0
    8.9861   15.8245   21.7057 C    0  0  0  0  0  0  0  0  0  0  0  0
   10.3613   15.6062   20.9947 C    0  0  0  0  0  0  0  0  0  0  0  0
   10.3404   15.9794   19.5113 C    0  0  0  0  0  0  0  0  0  0  0  0
    9.7887   16.9722   19.0703 O    0  0  0  0  0  0  0  0  0  0  0  0
   10.8484   15.0528   18.6702 N    0  0  0  0  0  0  0  0  0  0  0  0
    6.9153    8.6701   25.5643 H    0  0  0  0  0  0  0  0  0  0  0  0
    9.6702   11.4568   24.0051 H    0  0  0  0  0  0  0  0  0  0  0  0
    8.2249   14.3932   25.7308 H    0  0  0  0  0  0  0  0  0  0  0  0
    9.6904   13.6528   25.1439 H    0  0  0  0  0  0  0  0  0  0  0  0
    9.7526   17.2063   23.8532 H    0  0  0  0  0  0  0  0  0  0  0  0
   10.0720   15.9393   24.9576 H    0  0  0  0  0  0  0  0  0  0  0  0
   12.1639   16.6470   23.8274 H    0  0  0  0  0  0  0  0  0  0  0  0
   11.8128   14.9746   23.4302 H    0  0  0  0  0  0  0  0  0  0  0  0
   11.4044   17.4349   21.6337 H    0  0  0  0  0  0  0  0  0  0  0  0
   12.4603   16.0653   21.3550 H    0  0  0  0  0  0  0  0  0  0  0  0
    8.7170   16.8862   21.6923 H    0  0  0  0  0  0  0  0  0  0  0  0
    8.2090   15.3278   21.1166 H    0  0  0  0  0  0  0  0  0  0  0  0
   10.5738   14.5327   21.0716 H    0  0  0  0  0  0  0  0  0  0  0  0
   11.1320   14.1329   19.0051 H    0  0  0  0  0  0  0  0  0  0  0  0
   10.8759   15.2469   17.6749 H    0  0  0  0  0  0  0  0  0  0  0  0
 10 11  1  0  0  0  0
  9 10  1  0  0  0  0
  8  9  1  0  0  0  0
  6  8  2  0  0  0  0
  5  6  1  0  0  0  0
  3  5  2  0  0  0  0
  2  3  1  0  0  0  0
  1  2  2  0  0  0  0
  4  3  1  0  0  0  0
 22  5  1  0  0  0  0
  7  6  1  0  0  0  0
 23  8  1  0  0  0  0
 24 10  1  0  0  0  0
 25 10  1  0  0  0  0
 12 11  2  0  0  0  0
 13 11  1  0  0  0  0
 14 13  1  0  0  0  0
 26 14  1  0  0  0  0
 27 14  1  0  0  0  0
 15 14  1  0  0  0  0
 28 15  1  0  0  0  0
 29 15  1  0  0  0  0
 16 15  1  0  0  0  0
 30 16  1  0  0  0  0
 31 16  1  0  0  0  0
 17 13  1  0  0  0  0
 32 17  1  0  0  0  0
 33 17  1  0  0  0  0
 18 16  1  0  0  0  0
 19 18  1  0  0  0  0
 34 18  1  0  0  0  0
 20 19  2  0  0  0  0
 21 19  1  0  0  0  0
 35 21  1  0  0  0  0
 36 21  1  0  0  0  0
  9  2  1  0  0  0  0
 18 17  1  0  0  0  0
M  END
>  <FittedScore>
-25.03

$$$$
