A71EV2A-x7044a_best-RMSD
  FITTED

 56 60     0  0  0  0  0  0  0999 V2000
    9.7267   10.1893   23.4843 C    0  0  0  0  0  0  0  0  0  0  0  0
    8.3586    9.2122   24.0416 S    0  0  0  0  0  0  0  0  0  0  0  0
    7.2332   10.2948   24.9096 C    0  0  0  0  0  0  0  0  0  0  0  0
    6.5059    9.6204   25.8777 C    0  0  0  0  0  0  0  0  0  0  0  0
    5.5271   10.2616   26.6288 C    0  0  0  0  0  0  0  0  0  0  0  0
    5.2327   11.6198   26.4279 C    0  0  0  0  0  0  0  0  0  0  0  0
    4.2587   12.2552   27.2284 C    0  0  0  0  0  0  0  0  0  0  0  0
    3.8967   11.8266   28.4885 C    0  0  0  0  0  0  0  0  0  0  0  0
    3.0613   12.7778   28.9926 C    0  0  0  0  0  0  0  0  0  0  0  0
    2.9102   13.8990   28.0454 N    0  0  0  0  0  0  0  0  0  0  0  0
    3.5606   13.3989   26.9369 N    0  0  0  0  0  0  0  0  0  0  0  0
    2.8230   13.6035   25.6153 C    0  0  0  0  0  0  0  0  0  0  0  0
    1.9518   14.8949   25.3496 C    0  0  0  0  0  0  0  0  0  0  0  0
    1.0307   13.9438   24.5054 C    0  0  0  0  0  0  0  0  0  0  0  0
    1.4609   12.8298   25.5057 C    0  0  0  0  0  0  0  0  0  0  0  0
    5.9636   12.3228   25.4423 C    0  0  0  0  0  0  0  0  0  0  0  0
    6.9572   11.6770   24.6851 C    0  0  0  0  0  0  0  0  0  0  0  0
    7.6197   12.4363   23.7387 O    0  0  0  0  0  0  0  0  0  0  0  0
    8.7501   13.1440   24.0370 C    0  0  0  0  0  0  0  0  0  0  0  0
    9.2028   13.2636   25.1673 O    0  0  0  0  0  0  0  0  0  0  0  0
    9.4178   13.5681   22.9283 N    0  0  0  0  0  0  0  0  0  0  0  0
   10.8788   13.4439   22.7275 C    0  0  0  0  0  0  0  0  0  0  0  0
   11.6404   14.7797   22.9016 C    0  0  0  0  0  0  0  0  0  0  0  0
   11.6428   15.0937   24.3977 C    0  0  0  0  0  0  0  0  0  0  0  0
   12.4155   14.2830   25.1399 N    0  0  0  0  0  0  0  0  0  0  0  0
   10.8847   15.8502   24.9652 O    0  0  0  0  0  0  0  0  0  0  0  0
   11.0914   15.8805   21.9562 C    0  0  0  0  0  0  0  0  0  0  0  0
    9.5658   15.7869   21.9295 C    0  0  0  0  0  0  0  0  0  0  0  0
    8.9214   15.1482   20.7349 C    0  0  0  0  0  0  0  0  0  0  0  0
    8.7083   14.5588   22.0831 C    0  0  0  0  0  0  0  0  0  0  0  0
   10.5286    9.5483   23.1211 H    0  0  0  0  0  0  0  0  0  0  0  0
   10.1071   10.7906   24.3122 H    0  0  0  0  0  0  0  0  0  0  0  0
    9.3939   10.7973   22.6455 H    0  0  0  0  0  0  0  0  0  0  0  0
    6.6789    8.5610   26.0634 H    0  0  0  0  0  0  0  0  0  0  0  0
    4.9886    9.6565   27.3452 H    0  0  0  0  0  0  0  0  0  0  0  0
    4.2416   10.9456   29.0120 H    0  0  0  0  0  0  0  0  0  0  0  0
    2.5783   12.7478   29.9644 H    0  0  0  0  0  0  0  0  0  0  0  0
    3.4960   13.3883   24.7750 H    0  0  0  0  0  0  0  0  0  0  0  0
    2.4438   15.6922   24.7835 H    0  0  0  0  0  0  0  0  0  0  0  0
    1.4498   15.3607   26.2091 H    0  0  0  0  0  0  0  0  0  0  0  0
    1.3512   13.7773   23.4687 H    0  0  0  0  0  0  0  0  0  0  0  0
   -0.0362   14.1844   24.4939 H    0  0  0  0  0  0  0  0  0  0  0  0
    0.8513   12.7693   26.4172 H    0  0  0  0  0  0  0  0  0  0  0  0
    1.5411   11.8138   25.0978 H    0  0  0  0  0  0  0  0  0  0  0  0
    5.8079   13.3877   25.2589 H    0  0  0  0  0  0  0  0  0  0  0  0
   11.0262   13.1117   21.6965 H    0  0  0  0  0  0  0  0  0  0  0  0
   11.3013   12.6432   23.3301 H    0  0  0  0  0  0  0  0  0  0  0  0
   12.6771   14.6308   22.5816 H    0  0  0  0  0  0  0  0  0  0  0  0
   12.9312   13.5461   24.6951 H    0  0  0  0  0  0  0  0  0  0  0  0
   12.5111   14.4312   26.1276 H    0  0  0  0  0  0  0  0  0  0  0  0
   11.4833   15.7498   20.9570 H    0  0  0  0  0  0  0  0  0  0  0  0
   11.4210   16.8742   22.2533 H    0  0  0  0  0  0  0  0  0  0  0  0
    9.1225   16.6900   22.3317 H    0  0  0  0  0  0  0  0  0  0  0  0
    9.5082   14.5995   20.0123 H    0  0  0  0  0  0  0  0  0  0  0  0
    8.0693   15.6801   20.3128 H    0  0  0  0  0  0  0  0  0  0  0  0
    7.7560   14.7019   22.5950 H    0  0  0  0  0  0  0  0  0  0  0  0
 17 18  1  0  0  0  0
 16 17  2  0  0  0  0
  6 16  1  0  0  0  0
  5  6  2  0  0  0  0
  4  5  1  0  0  0  0
  3  4  2  0  0  0  0
  2  3  1  0  0  0  0
  1  2  1  0  0  0  0
 31  1  1  0  0  0  0
 32  1  1  0  0  0  0
 33  1  1  0  0  0  0
 34  4  1  0  0  0  0
 35  5  1  0  0  0  0
  7  6  1  0  0  0  0
  8  7  2  0  0  0  0
  9  8  1  0  0  0  0
 36  8  1  0  0  0  0
 10  9  2  0  0  0  0
 37  9  1  0  0  0  0
 11 10  1  0  0  0  0
 12 11  1  0  0  0  0
 13 12  1  0  0  0  0
 38 12  1  0  0  0  0
 14 13  1  0  0  0  0
 39 13  1  0  0  0  0
 40 13  1  0  0  0  0
 15 14  1  0  0  0  0
 41 14  1  0  0  0  0
 42 14  1  0  0  0  0
 43 15  1  0  0  0  0
 44 15  1  0  0  0  0
 45 16  1  0  0  0  0
 19 18  1  0  0  0  0
 20 19  2  0  0  0  0
 21 19  1  0  0  0  0
 22 21  1  0  0  0  0
 23 22  1  0  0  0  0
 46 22  1  0  0  0  0
 47 22  1  0  0  0  0
 24 23  1  0  0  0  0
 27 23  1  0  0  0  0
 48 23  1  0  0  0  0
 25 24  1  0  0  0  0
 26 24  2  0  0  0  0
 49 25  1  0  0  0  0
 50 25  1  0  0  0  0
 51 27  1  0  0  0  0
 52 27  1  0  0  0  0
 28 27  1  0  0  0  0
 29 28  1  0  0  0  0
 53 28  1  0  0  0  0
 54 29  1  0  0  0  0
 55 29  1  0  0  0  0
 30 29  1  0  0  0  0
 56 30  1  0  0  0  0
 11  7  1  0  0  0  0
 15 12  1  0  0  0  0
 17  3  1  0  0  0  0
 30 21  1  0  0  0  0
 30 28  1  0  0  0  0
M  END
>  <FittedScore>
-21.76

$$$$
