A71EV2A-x7251a_best-RMSD
  FITTED

 56 57     0  0  0  0  0  0  0999 V2000
    9.5024    8.6372   23.4820 C    0  0  0  0  0  0  0  0  0  0  0  0
    9.3993   10.3734   24.0190 S    0  0  0  0  0  0  0  0  0  0  0  0
    7.9902   10.5167   25.1153 C    0  0  0  0  0  0  0  0  0  0  0  0
    7.3284    9.3744   25.4436 N    0  0  0  0  0  0  0  0  0  0  0  0
    6.2513    9.4626   26.2610 C    0  0  0  0  0  0  0  0  0  0  0  0
    5.7646   10.6175   26.7667 N    0  0  0  0  0  0  0  0  0  0  0  0
    6.3960   11.7841   26.4441 C    0  0  0  0  0  0  0  0  0  0  0  0
    5.8228   12.9243   26.9845 N    0  0  0  0  0  0  0  0  0  0  0  0
    5.2923   13.9989   26.1147 C    0  0  0  0  0  0  0  0  0  0  0  0
    5.8848   13.1586   28.4565 C    0  0  0  0  0  0  0  0  0  0  0  0
    4.5332   12.9409   29.2604 C    0  0  0  0  0  0  0  0  0  0  0  0
    4.8438   12.4285   30.7008 C    0  0  0  0  0  0  0  0  0  0  0  0
    3.6923   14.2525   29.3563 C    0  0  0  0  0  0  0  0  0  0  0  0
    3.6931   11.9464   28.6427 O    0  0  0  0  0  0  0  0  0  0  0  0
    7.5617   11.7777   25.6169 C    0  0  0  0  0  0  0  0  0  0  0  0
    8.3509   13.0565   25.2629 C    0  0  0  0  0  0  0  0  0  0  0  0
    8.1320   13.5701   23.8227 C    0  0  0  0  0  0  0  0  0  0  0  0
    7.2876   13.0421   23.1166 O    0  0  0  0  0  0  0  0  0  0  0  0
    8.9122   14.6069   23.3452 N    0  0  0  0  0  0  0  0  0  0  0  0
    9.9496   15.3700   24.1250 C    0  0  0  0  0  0  0  0  0  0  0  0
   11.3655   15.2324   23.5050 C    0  0  0  0  0  0  0  0  0  0  0  0
   11.3783   15.7040   22.0272 C    0  0  0  0  0  0  0  0  0  0  0  0
   10.2458   15.0199   21.2045 C    0  0  0  0  0  0  0  0  0  0  0  0
   10.2269   15.5577   19.7716 C    0  0  0  0  0  0  0  0  0  0  0  0
   10.7082   14.7325   18.8206 N    0  0  0  0  0  0  0  0  0  0  0  0
    9.8190   16.6603   19.4623 O    0  0  0  0  0  0  0  0  0  0  0  0
    8.8604   15.1116   21.9298 C    0  0  0  0  0  0  0  0  0  0  0  0
    8.5933    8.3641   22.9422 H    0  0  0  0  0  0  0  0  0  0  0  0
    9.6209    7.9844   24.3493 H    0  0  0  0  0  0  0  0  0  0  0  0
   10.3617    8.5092   22.8218 H    0  0  0  0  0  0  0  0  0  0  0  0
    5.7410    8.5403   26.5301 H    0  0  0  0  0  0  0  0  0  0  0  0
    5.8645   14.9250   26.2157 H    0  0  0  0  0  0  0  0  0  0  0  0
    4.2498   14.2268   26.3328 H    0  0  0  0  0  0  0  0  0  0  0  0
    5.3157   13.7264   25.0566 H    0  0  0  0  0  0  0  0  0  0  0  0
    6.2716   14.1622   28.6553 H    0  0  0  0  0  0  0  0  0  0  0  0
    6.6628   12.5154   28.8808 H    0  0  0  0  0  0  0  0  0  0  0  0
    3.9308   12.2842   31.2876 H    0  0  0  0  0  0  0  0  0  0  0  0
    5.4755   13.1379   31.2429 H    0  0  0  0  0  0  0  0  0  0  0  0
    5.3667   11.4679   30.6798 H    0  0  0  0  0  0  0  0  0  0  0  0
    2.8469   14.1398   30.0418 H    0  0  0  0  0  0  0  0  0  0  0  0
    3.2738   14.5419   28.3923 H    0  0  0  0  0  0  0  0  0  0  0  0
    4.2970   15.0884   29.7177 H    0  0  0  0  0  0  0  0  0  0  0  0
    4.1822   11.1018   28.6281 H    0  0  0  0  0  0  0  0  0  0  0  0
    9.4068   12.8508   25.4487 H    0  0  0  0  0  0  0  0  0  0  0  0
    8.1280   13.8556   25.9686 H    0  0  0  0  0  0  0  0  0  0  0  0
   10.0179   15.0886   25.1766 H    0  0  0  0  0  0  0  0  0  0  0  0
    9.6711   16.4306   24.1436 H    0  0  0  0  0  0  0  0  0  0  0  0
   11.6941   14.1905   23.5643 H    0  0  0  0  0  0  0  0  0  0  0  0
   12.0825   15.8222   24.0822 H    0  0  0  0  0  0  0  0  0  0  0  0
   12.3475   15.4622   21.5829 H    0  0  0  0  0  0  0  0  0  0  0  0
   11.2747   16.7927   21.9924 H    0  0  0  0  0  0  0  0  0  0  0  0
   10.4912   13.9512   21.1650 H    0  0  0  0  0  0  0  0  0  0  0  0
   10.9184   13.7605   19.0516 H    0  0  0  0  0  0  0  0  0  0  0  0
   10.6643   15.0135   17.8476 H    0  0  0  0  0  0  0  0  0  0  0  0
    8.1339   14.5709   21.3194 H    0  0  0  0  0  0  0  0  0  0  0  0
    8.5061   16.1470   21.9379 H    0  0  0  0  0  0  0  0  0  0  0  0
 15 16  1  0  0  0  0
  7 15  2  0  0  0  0
  6  7  1  0  0  0  0
  5  6  2  0  0  0  0
  4  5  1  0  0  0  0
  3  4  2  0  0  0  0
  2  3  1  0  0  0  0
  1  2  1  0  0  0  0
 28  1  1  0  0  0  0
 29  1  1  0  0  0  0
 30  1  1  0  0  0  0
 31  5  1  0  0  0  0
  8  7  1  0  0  0  0
  9  8  1  0  0  0  0
 10  8  1  0  0  0  0
 32  9  1  0  0  0  0
 33  9  1  0  0  0  0
 34  9  1  0  0  0  0
 11 10  1  0  0  0  0
 35 10  1  0  0  0  0
 36 10  1  0  0  0  0
 12 11  1  0  0  0  0
 13 11  1  0  0  0  0
 14 11  1  0  0  0  0
 37 12  1  0  0  0  0
 38 12  1  0  0  0  0
 39 12  1  0  0  0  0
 40 13  1  0  0  0  0
 41 13  1  0  0  0  0
 42 13  1  0  0  0  0
 43 14  1  0  0  0  0
 17 16  1  0  0  0  0
 44 16  1  0  0  0  0
 45 16  1  0  0  0  0
 18 17  2  0  0  0  0
 19 17  1  0  0  0  0
 20 19  1  0  0  0  0
 21 20  1  0  0  0  0
 46 20  1  0  0  0  0
 47 20  1  0  0  0  0
 22 21  1  0  0  0  0
 48 21  1  0  0  0  0
 49 21  1  0  0  0  0
 23 22  1  0  0  0  0
 50 22  1  0  0  0  0
 51 22  1  0  0  0  0
 24 23  1  0  0  0  0
 27 23  1  0  0  0  0
 52 23  1  0  0  0  0
 25 24  1  0  0  0  0
 26 24  2  0  0  0  0
 53 25  1  0  0  0  0
 54 25  1  0  0  0  0
 55 27  1  0  0  0  0
 56 27  1  0  0  0  0
 15  3  1  0  0  0  0
 27 19  1  0  0  0  0
M  END
>  <FittedScore>
-35.21

$$$$
