A71EV2A-x7251a_lowest-energy
  FITTED

 56 57     0  0  0  0  0  0  0999 V2000
    9.5464    8.5843   23.5311 C    0  0  0  0  0  0  0  0  0  0  0  0
    9.4074   10.3498   23.9524 S    0  0  0  0  0  0  0  0  0  0  0  0
    8.0177   10.5602   25.0681 C    0  0  0  0  0  0  0  0  0  0  0  0
    7.3170    9.4515   25.4365 N    0  0  0  0  0  0  0  0  0  0  0  0
    6.2713    9.6023   26.2954 C    0  0  0  0  0  0  0  0  0  0  0  0
    5.8619   10.7865   26.8138 N    0  0  0  0  0  0  0  0  0  0  0  0
    6.5294   11.9137   26.4387 C    0  0  0  0  0  0  0  0  0  0  0  0
    6.0401   13.0888   26.9761 N    0  0  0  0  0  0  0  0  0  0  0  0
    6.5680   13.5501   28.2806 C    0  0  0  0  0  0  0  0  0  0  0  0
    5.2881   14.0536   26.1273 C    0  0  0  0  0  0  0  0  0  0  0  0
    3.7268   13.9924   26.3087 C    0  0  0  0  0  0  0  0  0  0  0  0
    3.2705   14.2861   27.7712 C    0  0  0  0  0  0  0  0  0  0  0  0
    3.0589   15.0123   25.3384 C    0  0  0  0  0  0  0  0  0  0  0  0
    3.2390   12.6833   25.9652 O    0  0  0  0  0  0  0  0  0  0  0  0
    7.6510   11.8478   25.5547 C    0  0  0  0  0  0  0  0  0  0  0  0
    8.4482   13.1040   25.1451 C    0  0  0  0  0  0  0  0  0  0  0  0
    8.1868   13.6105   23.7176 C    0  0  0  0  0  0  0  0  0  0  0  0
    7.3556   13.0549   23.0140 O    0  0  0  0  0  0  0  0  0  0  0  0
    8.9439   14.6681   23.2458 N    0  0  0  0  0  0  0  0  0  0  0  0
    9.9288   15.4961   24.0318 C    0  0  0  0  0  0  0  0  0  0  0  0
   11.3685   15.4180   23.4567 C    0  0  0  0  0  0  0  0  0  0  0  0
   11.4064   15.8469   21.9668 C    0  0  0  0  0  0  0  0  0  0  0  0
   10.3290   15.0737   21.1495 C    0  0  0  0  0  0  0  0  0  0  0  0
   10.2936   15.5687   19.7092 C    0  0  0  0  0  0  0  0  0  0  0  0
   10.7807   14.7223   18.7842 N    0  0  0  0  0  0  0  0  0  0  0  0
    9.7698   16.6115   19.3724 O    0  0  0  0  0  0  0  0  0  0  0  0
    8.9207   15.1374   21.8232 C    0  0  0  0  0  0  0  0  0  0  0  0
    8.6499    8.2457   23.0078 H    0  0  0  0  0  0  0  0  0  0  0  0
    9.6750    8.0031   24.4456 H    0  0  0  0  0  0  0  0  0  0  0  0
   10.4128    8.4257   22.8856 H    0  0  0  0  0  0  0  0  0  0  0  0
    5.7228    8.7114   26.5852 H    0  0  0  0  0  0  0  0  0  0  0  0
    6.2254   12.9015   29.0892 H    0  0  0  0  0  0  0  0  0  0  0  0
    6.2669   14.5681   28.5423 H    0  0  0  0  0  0  0  0  0  0  0  0
    7.6612   13.5334   28.2974 H    0  0  0  0  0  0  0  0  0  0  0  0
    5.5131   13.8834   25.0710 H    0  0  0  0  0  0  0  0  0  0  0  0
    5.6386   15.0766   26.2998 H    0  0  0  0  0  0  0  0  0  0  0  0
    2.1855   14.4072   27.8361 H    0  0  0  0  0  0  0  0  0  0  0  0
    3.7257   15.2025   28.1536 H    0  0  0  0  0  0  0  0  0  0  0  0
    3.5384   13.4707   28.4501 H    0  0  0  0  0  0  0  0  0  0  0  0
    1.9686   14.9923   25.4214 H    0  0  0  0  0  0  0  0  0  0  0  0
    3.3079   14.8087   24.2934 H    0  0  0  0  0  0  0  0  0  0  0  0
    3.3834   16.0322   25.5604 H    0  0  0  0  0  0  0  0  0  0  0  0
    3.8196   12.3146   25.2570 H    0  0  0  0  0  0  0  0  0  0  0  0
    9.5128   12.8957   25.2706 H    0  0  0  0  0  0  0  0  0  0  0  0
    8.2577   13.9231   25.8374 H    0  0  0  0  0  0  0  0  0  0  0  0
    9.9917   15.2396   25.0888 H    0  0  0  0  0  0  0  0  0  0  0  0
    9.5921   16.5403   24.0316 H    0  0  0  0  0  0  0  0  0  0  0  0
   11.7495   14.3974   23.5579 H    0  0  0  0  0  0  0  0  0  0  0  0
   12.0345   16.0615   24.0379 H    0  0  0  0  0  0  0  0  0  0  0  0
   12.3990   15.6354   21.5598 H    0  0  0  0  0  0  0  0  0  0  0  0
   11.2494   16.9288   21.8866 H    0  0  0  0  0  0  0  0  0  0  0  0
   10.6268   14.0158   21.1584 H    0  0  0  0  0  0  0  0  0  0  0  0
   11.0256   13.7679   19.0498 H    0  0  0  0  0  0  0  0  0  0  0  0
   10.7237   14.9683   17.8031 H    0  0  0  0  0  0  0  0  0  0  0  0
    8.2362   14.5633   21.1959 H    0  0  0  0  0  0  0  0  0  0  0  0
    8.5405   16.1635   21.8040 H    0  0  0  0  0  0  0  0  0  0  0  0
 15 16  1  0  0  0  0
  7 15  2  0  0  0  0
  6  7  1  0  0  0  0
  5  6  2  0  0  0  0
  4  5  1  0  0  0  0
  3  4  2  0  0  0  0
  2  3  1  0  0  0  0
  1  2  1  0  0  0  0
 28  1  1  0  0  0  0
 29  1  1  0  0  0  0
 30  1  1  0  0  0  0
 31  5  1  0  0  0  0
  8  7  1  0  0  0  0
  9  8  1  0  0  0  0
 10  8  1  0  0  0  0
 32  9  1  0  0  0  0
 33  9  1  0  0  0  0
 34  9  1  0  0  0  0
 11 10  1  0  0  0  0
 35 10  1  0  0  0  0
 36 10  1  0  0  0  0
 12 11  1  0  0  0  0
 13 11  1  0  0  0  0
 14 11  1  0  0  0  0
 37 12  1  0  0  0  0
 38 12  1  0  0  0  0
 39 12  1  0  0  0  0
 40 13  1  0  0  0  0
 41 13  1  0  0  0  0
 42 13  1  0  0  0  0
 43 14  1  0  0  0  0
 17 16  1  0  0  0  0
 44 16  1  0  0  0  0
 45 16  1  0  0  0  0
 18 17  2  0  0  0  0
 19 17  1  0  0  0  0
 20 19  1  0  0  0  0
 21 20  1  0  0  0  0
 46 20  1  0  0  0  0
 47 20  1  0  0  0  0
 22 21  1  0  0  0  0
 48 21  1  0  0  0  0
 49 21  1  0  0  0  0
 23 22  1  0  0  0  0
 50 22  1  0  0  0  0
 51 22  1  0  0  0  0
 24 23  1  0  0  0  0
 27 23  1  0  0  0  0
 52 23  1  0  0  0  0
 25 24  1  0  0  0  0
 26 24  2  0  0  0  0
 53 25  1  0  0  0  0
 54 25  1  0  0  0  0
 55 27  1  0  0  0  0
 56 27  1  0  0  0  0
 15  3  1  0  0  0  0
 27 19  1  0  0  0  0
M  END
>  <FittedScore>
-36.11

$$$$
