A71EV2A-x5247a_best-RMSD
  FITTED

 43 44     0  0  0  0  0  0  0999 V2000
    9.8293   16.9789   19.3165 O    0  0  0  0  0  0  0  0  0  0  0  0
   10.2568   15.9430   19.7900 C    0  0  0  0  0  0  0  0  0  0  0  0
   10.6058   14.9303   18.9715 N    0  0  0  0  0  0  0  0  0  0  0  0
   10.1939   15.6348   21.2866 C    0  0  0  0  0  0  0  0  0  0  0  0
    9.0323   14.6512   21.6305 C    0  0  0  0  0  0  0  0  0  0  0  0
   11.5658   15.1832   21.8840 C    0  0  0  0  0  0  0  0  0  0  0  0
   11.4521   14.3653   23.2009 C    0  0  0  0  0  0  0  0  0  0  0  0
   10.0831   14.4821   23.9370 C    0  0  0  0  0  0  0  0  0  0  0  0
    9.9647   15.8112   24.7354 C    0  0  0  0  0  0  0  0  0  0  0  0
    8.8783   14.2183   23.0650 N    0  0  0  0  0  0  0  0  0  0  0  0
    7.7337   13.5516   23.4573 C    0  0  0  0  0  0  0  0  0  0  0  0
    6.9357   13.1502   22.6308 O    0  0  0  0  0  0  0  0  0  0  0  0
    7.4078   13.3111   24.9448 C    0  0  0  0  0  0  0  0  0  0  0  0
    6.8225   11.9269   25.2685 C    0  0  0  0  0  0  0  0  0  0  0  0
    7.4867   10.7025   24.9631 C    0  0  0  0  0  0  0  0  0  0  0  0
    9.0988   10.6825   24.1594 S    0  0  0  0  0  0  0  0  0  0  0  0
    9.4072    9.0357   23.4456 C    0  0  0  0  0  0  0  0  0  0  0  0
    5.6010   11.8962   25.9763 C    0  0  0  0  0  0  0  0  0  0  0  0
    5.0305   10.6793   26.3711 C    0  0  0  0  0  0  0  0  0  0  0  0
    3.4415   10.6659   27.4282 BR   0  0  0  0  0  0  0  0  0  0  0  0
    5.6568    9.4777   26.0318 C    0  0  0  0  0  0  0  0  0  0  0  0
    6.8727    9.4912   25.3373 C    0  0  0  0  0  0  0  0  0  0  0  0
   10.6255   15.0875   17.9751 H    0  0  0  0  0  0  0  0  0  0  0  0
   10.7352   13.9888   19.3379 H    0  0  0  0  0  0  0  0  0  0  0  0
    9.9442   16.5841   21.7653 H    0  0  0  0  0  0  0  0  0  0  0  0
    8.1045   15.1272   21.2997 H    0  0  0  0  0  0  0  0  0  0  0  0
    9.1430   13.7420   21.0315 H    0  0  0  0  0  0  0  0  0  0  0  0
   12.1890   16.0640   22.0574 H    0  0  0  0  0  0  0  0  0  0  0  0
   12.1172   14.5627   21.1718 H    0  0  0  0  0  0  0  0  0  0  0  0
   12.2705   14.6386   23.8724 H    0  0  0  0  0  0  0  0  0  0  0  0
   11.6141   13.3084   22.9654 H    0  0  0  0  0  0  0  0  0  0  0  0
   10.1648   13.6840   24.6760 H    0  0  0  0  0  0  0  0  0  0  0  0
    9.9168   16.6815   24.0798 H    0  0  0  0  0  0  0  0  0  0  0  0
   10.8123   15.9487   25.4105 H    0  0  0  0  0  0  0  0  0  0  0  0
    9.0589   15.8201   25.3426 H    0  0  0  0  0  0  0  0  0  0  0  0
    8.2346   13.4506   25.6367 H    0  0  0  0  0  0  0  0  0  0  0  0
    6.7049   14.1012   25.2222 H    0  0  0  0  0  0  0  0  0  0  0  0
   10.3057    9.0957   22.8304 H    0  0  0  0  0  0  0  0  0  0  0  0
    9.5884    8.3049   24.2350 H    0  0  0  0  0  0  0  0  0  0  0  0
    8.5709    8.7191   22.8188 H    0  0  0  0  0  0  0  0  0  0  0  0
    5.1008   12.8264   26.2401 H    0  0  0  0  0  0  0  0  0  0  0  0
    5.2217    8.5215   26.3169 H    0  0  0  0  0  0  0  0  0  0  0  0
    7.3287    8.5333   25.1143 H    0  0  0  0  0  0  0  0  0  0  0  0
  5 10  1  0  0  0  0
  4  5  1  0  0  0  0
  2  4  1  0  0  0  0
  1  2  2  0  0  0  0
  3  2  1  0  0  0  0
 23  3  1  0  0  0  0
 24  3  1  0  0  0  0
 25  4  1  0  0  0  0
 26  5  1  0  0  0  0
 27  5  1  0  0  0  0
  6  4  1  0  0  0  0
 28  6  1  0  0  0  0
 29  6  1  0  0  0  0
  7  6  1  0  0  0  0
 30  7  1  0  0  0  0
 31  7  1  0  0  0  0
  8  7  1  0  0  0  0
  9  8  1  0  0  0  0
 32  8  1  0  0  0  0
 33  9  1  0  0  0  0
 34  9  1  0  0  0  0
 35  9  1  0  0  0  0
 11 10  1  0  0  0  0
 12 11  2  0  0  0  0
 13 11  1  0  0  0  0
 36 13  1  0  0  0  0
 37 13  1  0  0  0  0
 14 13  1  0  0  0  0
 15 14  1  0  0  0  0
 22 15  2  0  0  0  0
 16 15  1  0  0  0  0
 17 16  1  0  0  0  0
 38 17  1  0  0  0  0
 39 17  1  0  0  0  0
 40 17  1  0  0  0  0
 18 14  2  0  0  0  0
 41 18  1  0  0  0  0
 19 18  1  0  0  0  0
 20 19  1  0  0  0  0
 21 19  2  0  0  0  0
 42 21  1  0  0  0  0
 43 22  1  0  0  0  0
 10  8  1  0  0  0  0
 22 21  1  0  0  0  0
M  END
>  <FittedScore>
-37.17

$$$$
