A71EV2A-x5819a_lowest-energy
  FITTED

 41 42     0  0  0  0  0  0  0999 V2000
    9.3099    8.6634   23.4408 C    0  0  0  0  0  0  0  0  0  0  0  0
    9.1508   10.4098   23.9197 S    0  0  0  0  0  0  0  0  0  0  0  0
    7.6597   10.6431   24.8949 C    0  0  0  0  0  0  0  0  0  0  0  0
    6.8770    9.5517   25.3107 C    0  0  0  0  0  0  0  0  0  0  0  0
    5.7208    9.7380   26.0791 C    0  0  0  0  0  0  0  0  0  0  0  0
    5.3278   11.0311   26.4447 C    0  0  0  0  0  0  0  0  0  0  0  0
    3.7325   11.2830   27.4599 BR   0  0  0  0  0  0  0  0  0  0  0  0
    6.0856   12.1387   26.0369 C    0  0  0  0  0  0  0  0  0  0  0  0
    7.2394   11.9533   25.2554 C    0  0  0  0  0  0  0  0  0  0  0  0
    7.9263   13.0917   24.8391 O    0  0  0  0  0  0  0  0  0  0  0  0
    7.9109   13.5220   23.5489 C    0  0  0  0  0  0  0  0  0  0  0  0
    7.1149   13.0541   22.7524 O    0  0  0  0  0  0  0  0  0  0  0  0
    8.9759   14.2913   23.1403 N    0  0  0  0  0  0  0  0  0  0  0  0
    9.2227   14.5373   21.6879 C    0  0  0  0  0  0  0  0  0  0  0  0
    9.7954   15.9367   21.3298 C    0  0  0  0  0  0  0  0  0  0  0  0
   10.0253   16.1562   19.8365 C    0  0  0  0  0  0  0  0  0  0  0  0
   10.5311   15.1374   19.1044 N    0  0  0  0  0  0  0  0  0  0  0  0
    9.6397   17.1673   19.2869 O    0  0  0  0  0  0  0  0  0  0  0  0
   11.0691   16.2464   22.1563 C    0  0  0  0  0  0  0  0  0  0  0  0
   10.7665   16.0832   23.6679 C    0  0  0  0  0  0  0  0  0  0  0  0
   10.1317   14.6979   24.0296 C    0  0  0  0  0  0  0  0  0  0  0  0
   11.2200   13.5920   24.1591 C    0  0  0  0  0  0  0  0  0  0  0  0
    9.4012    8.0490   24.3321 H    0  0  0  0  0  0  0  0  0  0  0  0
   10.2204    8.5434   22.8500 H    0  0  0  0  0  0  0  0  0  0  0  0
    8.4591    8.3413   22.8344 H    0  0  0  0  0  0  0  0  0  0  0  0
    7.1401    8.5347   25.0463 H    0  0  0  0  0  0  0  0  0  0  0  0
    5.1472    8.8645   26.3871 H    0  0  0  0  0  0  0  0  0  0  0  0
    5.7829   13.1463   26.3127 H    0  0  0  0  0  0  0  0  0  0  0  0
    8.3189   14.4059   21.0837 H    0  0  0  0  0  0  0  0  0  0  0  0
    9.9069   13.7508   21.3523 H    0  0  0  0  0  0  0  0  0  0  0  0
    9.0259   16.6557   21.6337 H    0  0  0  0  0  0  0  0  0  0  0  0
   10.6071   15.2466   18.1026 H    0  0  0  0  0  0  0  0  0  0  0  0
   10.6674   14.2156   19.5215 H    0  0  0  0  0  0  0  0  0  0  0  0
   11.3988   17.2699   21.9579 H    0  0  0  0  0  0  0  0  0  0  0  0
   11.8863   15.5818   21.8603 H    0  0  0  0  0  0  0  0  0  0  0  0
   10.0752   16.8739   23.9744 H    0  0  0  0  0  0  0  0  0  0  0  0
   11.6831   16.2562   24.2387 H    0  0  0  0  0  0  0  0  0  0  0  0
    9.7470   14.8514   25.0403 H    0  0  0  0  0  0  0  0  0  0  0  0
   10.8147   12.6988   24.6317 H    0  0  0  0  0  0  0  0  0  0  0  0
   12.0491   13.9145   24.7893 H    0  0  0  0  0  0  0  0  0  0  0  0
   11.6263   13.3036   23.1858 H    0  0  0  0  0  0  0  0  0  0  0  0
 10 11  1  0  0  0  0
  9 10  1  0  0  0  0
  8  9  2  0  0  0  0
  6  8  1  0  0  0  0
  5  6  2  0  0  0  0
  4  5  1  0  0  0  0
  3  4  2  0  0  0  0
  2  3  1  0  0  0  0
  1  2  1  0  0  0  0
 23  1  1  0  0  0  0
 24  1  1  0  0  0  0
 25  1  1  0  0  0  0
 26  4  1  0  0  0  0
 27  5  1  0  0  0  0
  7  6  1  0  0  0  0
 28  8  1  0  0  0  0
 12 11  2  0  0  0  0
 13 11  1  0  0  0  0
 14 13  1  0  0  0  0
 15 14  1  0  0  0  0
 29 14  1  0  0  0  0
 30 14  1  0  0  0  0
 16 15  1  0  0  0  0
 19 15  1  0  0  0  0
 31 15  1  0  0  0  0
 17 16  1  0  0  0  0
 18 16  2  0  0  0  0
 32 17  1  0  0  0  0
 33 17  1  0  0  0  0
 20 19  1  0  0  0  0
 34 19  1  0  0  0  0
 35 19  1  0  0  0  0
 21 20  1  0  0  0  0
 36 20  1  0  0  0  0
 37 20  1  0  0  0  0
 22 21  1  0  0  0  0
 38 21  1  0  0  0  0
 39 22  1  0  0  0  0
 40 22  1  0  0  0  0
 41 22  1  0  0  0  0
  9  3  1  0  0  0  0
 21 13  1  0  0  0  0
M  END
>  <FittedScore>
-34.73

$$$$
