A71EV2A-x3895a_lowest-energy
  FITTED

 34 35     0  0  0  0  0  0  0999 V2000
   11.4861   15.4525   24.4547 O    0  0  0  0  0  0  0  0  0  0  0  0
   10.8196   15.4155   23.4458 C    0  0  0  0  0  0  0  0  0  0  0  0
   11.3557   15.7148   22.0698 C    0  0  0  0  0  0  0  0  0  0  0  0
   10.4001   14.9169   21.1642 C    0  0  0  0  0  0  0  0  0  0  0  0
   10.2976   15.4643   19.7459 C    0  0  0  0  0  0  0  0  0  0  0  0
    9.7687   16.5192   19.4500 O    0  0  0  0  0  0  0  0  0  0  0  0
   10.7461   14.6219   18.7967 N    0  0  0  0  0  0  0  0  0  0  0  0
    9.0789   14.8382   21.9607 C    0  0  0  0  0  0  0  0  0  0  0  0
    9.5690   14.9262   23.3387 N    0  0  0  0  0  0  0  0  0  0  0  0
    8.7716   14.2957   24.4268 C    0  0  0  0  0  0  0  0  0  0  0  0
    8.7122   12.7455   24.4005 C    0  0  0  0  0  0  0  0  0  0  0  0
    7.6866   12.0342   25.0856 C    0  0  0  0  0  0  0  0  0  0  0  0
    6.7249   12.7090   25.8270 O    0  0  0  0  0  0  0  0  0  0  0  0
    5.9317   12.0544   26.8516 C    0  0  0  0  0  0  0  0  0  0  0  0
    9.6943   11.9949   23.7101 C    0  0  0  0  0  0  0  0  0  0  0  0
    9.6040   10.6025   23.6160 C    0  0  0  0  0  0  0  0  0  0  0  0
    8.5619    9.9227   24.2478 C    0  0  0  0  0  0  0  0  0  0  0  0
    7.6232   10.6283   25.0030 C    0  0  0  0  0  0  0  0  0  0  0  0
   11.3170   16.7919   21.8750 H    0  0  0  0  0  0  0  0  0  0  0  0
   12.3909   15.3770   21.9540 H    0  0  0  0  0  0  0  0  0  0  0  0
   10.7929   13.8895   21.1337 H    0  0  0  0  0  0  0  0  0  0  0  0
   10.7446   14.8994   17.8275 H    0  0  0  0  0  0  0  0  0  0  0  0
   10.9954   13.6651   19.0429 H    0  0  0  0  0  0  0  0  0  0  0  0
    8.4176   15.6835   21.7451 H    0  0  0  0  0  0  0  0  0  0  0  0
    8.5409   13.9097   21.7430 H    0  0  0  0  0  0  0  0  0  0  0  0
    9.1590   14.6071   25.4020 H    0  0  0  0  0  0  0  0  0  0  0  0
    7.7646   14.7154   24.3680 H    0  0  0  0  0  0  0  0  0  0  0  0
    5.2090   11.3754   26.3969 H    0  0  0  0  0  0  0  0  0  0  0  0
    5.3801   12.8082   27.4167 H    0  0  0  0  0  0  0  0  0  0  0  0
    6.5783   11.5033   27.5415 H    0  0  0  0  0  0  0  0  0  0  0  0
   10.5383   12.4766   23.2232 H    0  0  0  0  0  0  0  0  0  0  0  0
   10.3549   10.0496   23.0561 H    0  0  0  0  0  0  0  0  0  0  0  0
    8.4941    8.8403   24.1652 H    0  0  0  0  0  0  0  0  0  0  0  0
    6.8288   10.0760   25.5020 H    0  0  0  0  0  0  0  0  0  0  0  0
  8  9  1  0  0  0  0
  4  8  1  0  0  0  0
  5  4  1  0  0  0  0
  3  4  1  0  0  0  0
  2  3  1  0  0  0  0
  1  2  2  0  0  0  0
 19  3  1  0  0  0  0
 20  3  1  0  0  0  0
 21  4  1  0  0  0  0
  6  5  2  0  0  0  0
  7  5  1  0  0  0  0
 22  7  1  0  0  0  0
 23  7  1  0  0  0  0
 24  8  1  0  0  0  0
 25  8  1  0  0  0  0
 10  9  1  0  0  0  0
 26 10  1  0  0  0  0
 27 10  1  0  0  0  0
 11 10  1  0  0  0  0
 12 11  1  0  0  0  0
 18 12  2  0  0  0  0
 13 12  1  0  0  0  0
 14 13  1  0  0  0  0
 28 14  1  0  0  0  0
 29 14  1  0  0  0  0
 30 14  1  0  0  0  0
 15 11  2  0  0  0  0
 31 15  1  0  0  0  0
 16 15  1  0  0  0  0
 32 16  1  0  0  0  0
 17 16  2  0  0  0  0
 33 17  1  0  0  0  0
 34 18  1  0  0  0  0
  9  2  1  0  0  0  0
 18 17  1  0  0  0  0
M  END
>  <FittedScore>
-29.93

$$$$
