A71EV2A-x3895a_best-RMSD
  FITTED

 34 35     0  0  0  0  0  0  0999 V2000
   11.3812   15.6339   24.4484 O    0  0  0  0  0  0  0  0  0  0  0  0
   10.7816   15.4819   23.4091 C    0  0  0  0  0  0  0  0  0  0  0  0
   11.3365   15.7941   22.0375 C    0  0  0  0  0  0  0  0  0  0  0  0
   10.4478   14.9280   21.1249 C    0  0  0  0  0  0  0  0  0  0  0  0
   10.3151   15.4610   19.7023 C    0  0  0  0  0  0  0  0  0  0  0  0
    9.7158   16.4744   19.4036 O    0  0  0  0  0  0  0  0  0  0  0  0
   10.7943   14.6406   18.7502 N    0  0  0  0  0  0  0  0  0  0  0  0
    9.1185   14.7646   21.8981 C    0  0  0  0  0  0  0  0  0  0  0  0
    9.5598   14.9027   23.2917 N    0  0  0  0  0  0  0  0  0  0  0  0
    8.7263   14.3054   24.3621 C    0  0  0  0  0  0  0  0  0  0  0  0
    8.6481   12.7602   24.3842 C    0  0  0  0  0  0  0  0  0  0  0  0
    7.5681   12.1324   25.0538 C    0  0  0  0  0  0  0  0  0  0  0  0
    6.7009   12.9059   25.8073 O    0  0  0  0  0  0  0  0  0  0  0  0
    5.8098   12.3591   26.8056 C    0  0  0  0  0  0  0  0  0  0  0  0
    9.6021   11.9399   23.7385 C    0  0  0  0  0  0  0  0  0  0  0  0
    9.4481   10.5488   23.7118 C    0  0  0  0  0  0  0  0  0  0  0  0
    8.3556    9.9509   24.3453 C    0  0  0  0  0  0  0  0  0  0  0  0
    7.4194   10.7335   25.0147 C    0  0  0  0  0  0  0  0  0  0  0  0
   11.2341   16.8607   21.8180 H    0  0  0  0  0  0  0  0  0  0  0  0
   12.3953   15.5245   21.9484 H    0  0  0  0  0  0  0  0  0  0  0  0
   10.9069   13.9287   21.1106 H    0  0  0  0  0  0  0  0  0  0  0  0
   10.8118   14.9416   17.7879 H    0  0  0  0  0  0  0  0  0  0  0  0
   11.0583   13.6813   18.9801 H    0  0  0  0  0  0  0  0  0  0  0  0
    8.4003   15.5516   21.6569 H    0  0  0  0  0  0  0  0  0  0  0  0
    8.6574   13.7959   21.6873 H    0  0  0  0  0  0  0  0  0  0  0  0
    9.0779   14.6413   25.3410 H    0  0  0  0  0  0  0  0  0  0  0  0
    7.7202   14.7199   24.2413 H    0  0  0  0  0  0  0  0  0  0  0  0
    5.0823   11.7005   26.3236 H    0  0  0  0  0  0  0  0  0  0  0  0
    5.2711   13.1723   27.2981 H    0  0  0  0  0  0  0  0  0  0  0  0
    6.3774   11.8086   27.5588 H    0  0  0  0  0  0  0  0  0  0  0  0
   10.4814   12.3610   23.2584 H    0  0  0  0  0  0  0  0  0  0  0  0
   10.1894    9.9333   23.2144 H    0  0  0  0  0  0  0  0  0  0  0  0
    8.2395    8.8728   24.3180 H    0  0  0  0  0  0  0  0  0  0  0  0
    6.5959   10.2402   25.5234 H    0  0  0  0  0  0  0  0  0  0  0  0
  8  9  1  0  0  0  0
  4  8  1  0  0  0  0
  5  4  1  0  0  0  0
  3  4  1  0  0  0  0
  2  3  1  0  0  0  0
  1  2  2  0  0  0  0
 19  3  1  0  0  0  0
 20  3  1  0  0  0  0
 21  4  1  0  0  0  0
  6  5  2  0  0  0  0
  7  5  1  0  0  0  0
 22  7  1  0  0  0  0
 23  7  1  0  0  0  0
 24  8  1  0  0  0  0
 25  8  1  0  0  0  0
 10  9  1  0  0  0  0
 26 10  1  0  0  0  0
 27 10  1  0  0  0  0
 11 10  1  0  0  0  0
 12 11  1  0  0  0  0
 18 12  2  0  0  0  0
 13 12  1  0  0  0  0
 14 13  1  0  0  0  0
 28 14  1  0  0  0  0
 29 14  1  0  0  0  0
 30 14  1  0  0  0  0
 15 11  2  0  0  0  0
 31 15  1  0  0  0  0
 16 15  1  0  0  0  0
 32 16  1  0  0  0  0
 17 16  2  0  0  0  0
 33 17  1  0  0  0  0
 34 18  1  0  0  0  0
  9  2  1  0  0  0  0
 18 17  1  0  0  0  0
M  END
>  <FittedScore>
-31.12

$$$$
