A71EV2A-x7147a_best-RMSD
  FITTED

 62 64     0  0  0  0  0  0  0999 V2000
    9.6875   16.5802   19.4371 O    0  0  0  0  0  0  0  0  0  0  0  0
   10.2342   15.5548   19.8025 C    0  0  0  0  0  0  0  0  0  0  0  0
   10.8404   14.7435   18.9136 N    0  0  0  0  0  0  0  0  0  0  0  0
   10.2064   15.0452   21.2410 C    0  0  0  0  0  0  0  0  0  0  0  0
   11.2975   15.7488   22.1055 C    0  0  0  0  0  0  0  0  0  0  0  0
   11.1874   15.3480   23.6055 C    0  0  0  0  0  0  0  0  0  0  0  0
    9.7339   15.4931   24.1263 C    0  0  0  0  0  0  0  0  0  0  0  0
    8.7868   15.1879   21.8831 C    0  0  0  0  0  0  0  0  0  0  0  0
    8.7563   14.7099   23.3018 N    0  0  0  0  0  0  0  0  0  0  0  0
    7.9930   13.6381   23.7208 C    0  0  0  0  0  0  0  0  0  0  0  0
    7.2232   13.0770   22.9595 O    0  0  0  0  0  0  0  0  0  0  0  0
    8.2287   13.0633   25.1313 C    0  0  0  0  0  0  0  0  0  0  0  0
    7.5154   11.7246   25.4165 C    0  0  0  0  0  0  0  0  0  0  0  0
    8.0486   10.5154   24.8700 C    0  0  0  0  0  0  0  0  0  0  0  0
    9.4511   10.4912   23.7618 S    0  0  0  0  0  0  0  0  0  0  0  0
    9.7854    8.7303   23.4059 C    0  0  0  0  0  0  0  0  0  0  0  0
    6.3445   11.6150   26.2343 C    0  0  0  0  0  0  0  0  0  0  0  0
    5.8719   10.3734   26.5383 N    0  0  0  0  0  0  0  0  0  0  0  0
    6.4508    9.2749   26.0109 C    0  0  0  0  0  0  0  0  0  0  0  0
    7.4982    9.3068   25.1644 N    0  0  0  0  0  0  0  0  0  0  0  0
    5.6080   12.6913   26.7577 N    0  0  0  0  0  0  0  0  0  0  0  0
    4.7613   12.5934   27.9821 C    0  0  0  0  0  0  0  0  0  0  0  0
    5.6360   12.5446   29.2849 C    0  0  0  0  0  0  0  0  0  0  0  0
    5.3829   11.2643   30.1499 C    0  0  0  0  0  0  0  0  0  0  0  0
    6.5771   10.9893   31.0982 C    0  0  0  0  0  0  0  0  0  0  0  0
    4.0503   11.3605   30.9499 C    0  0  0  0  0  0  0  0  0  0  0  0
    3.7671   13.7774   27.9222 C    0  0  0  0  0  0  0  0  0  0  0  0
    3.7635   14.2151   26.4577 C    0  0  0  0  0  0  0  0  0  0  0  0
    5.1422   13.8110   25.9171 C    0  0  0  0  0  0  0  0  0  0  0  0
   10.8196   14.9688   17.9221 H    0  0  0  0  0  0  0  0  0  0  0  0
   11.1653   13.8263   19.2251 H    0  0  0  0  0  0  0  0  0  0  0  0
   10.4386   13.9755   21.2419 H    0  0  0  0  0  0  0  0  0  0  0  0
   12.2900   15.4783   21.7368 H    0  0  0  0  0  0  0  0  0  0  0  0
   11.2082   16.8370   22.0158 H    0  0  0  0  0  0  0  0  0  0  0  0
   11.5225   14.3152   23.7426 H    0  0  0  0  0  0  0  0  0  0  0  0
   11.8521   15.9791   24.2037 H    0  0  0  0  0  0  0  0  0  0  0  0
    9.7202   15.2428   25.1850 H    0  0  0  0  0  0  0  0  0  0  0  0
    9.4506   16.5523   24.1025 H    0  0  0  0  0  0  0  0  0  0  0  0
    8.0734   14.6631   21.2379 H    0  0  0  0  0  0  0  0  0  0  0  0
    8.4610   16.2334   21.8623 H    0  0  0  0  0  0  0  0  0  0  0  0
    9.2989   12.9097   25.2890 H    0  0  0  0  0  0  0  0  0  0  0  0
    7.9685   13.8039   25.8883 H    0  0  0  0  0  0  0  0  0  0  0  0
    8.9418    8.2806   22.8733 H    0  0  0  0  0  0  0  0  0  0  0  0
    9.9614    8.1832   24.3365 H    0  0  0  0  0  0  0  0  0  0  0  0
   10.6766    8.6535   22.7825 H    0  0  0  0  0  0  0  0  0  0  0  0
    6.0359    8.3031   26.2746 H    0  0  0  0  0  0  0  0  0  0  0  0
    4.1172   11.7084   27.9326 H    0  0  0  0  0  0  0  0  0  0  0  0
    5.4651   13.4245   29.9131 H    0  0  0  0  0  0  0  0  0  0  0  0
    6.6962   12.6006   29.0197 H    0  0  0  0  0  0  0  0  0  0  0  0
    5.3049   10.3913   29.4945 H    0  0  0  0  0  0  0  0  0  0  0  0
    7.4863   10.7981   30.5220 H    0  0  0  0  0  0  0  0  0  0  0  0
    6.3963   10.1046   31.7145 H    0  0  0  0  0  0  0  0  0  0  0  0
    6.7676   11.8392   31.7588 H    0  0  0  0  0  0  0  0  0  0  0  0
    3.1973   11.5308   30.2903 H    0  0  0  0  0  0  0  0  0  0  0  0
    4.0786   12.1767   31.6765 H    0  0  0  0  0  0  0  0  0  0  0  0
    3.8558   10.4319   31.4915 H    0  0  0  0  0  0  0  0  0  0  0  0
    2.7645   13.4627   28.2337 H    0  0  0  0  0  0  0  0  0  0  0  0
    4.0610   14.6165   28.5595 H    0  0  0  0  0  0  0  0  0  0  0  0
    2.9726   13.6943   25.9095 H    0  0  0  0  0  0  0  0  0  0  0  0
    3.5916   15.2910   26.3646 H    0  0  0  0  0  0  0  0  0  0  0  0
    5.0498   13.5288   24.8644 H    0  0  0  0  0  0  0  0  0  0  0  0
    5.8135   14.6722   25.9728 H    0  0  0  0  0  0  0  0  0  0  0  0
 10 12  1  0  0  0  0
  9 10  1  0  0  0  0
  7  9  1  0  0  0  0
  6  7  1  0  0  0  0
  5  6  1  0  0  0  0
  4  5  1  0  0  0  0
  2  4  1  0  0  0  0
  1  2  2  0  0  0  0
  3  2  1  0  0  0  0
 30  3  1  0  0  0  0
 31  3  1  0  0  0  0
 32  4  1  0  0  0  0
 33  5  1  0  0  0  0
 34  5  1  0  0  0  0
 35  6  1  0  0  0  0
 36  6  1  0  0  0  0
 37  7  1  0  0  0  0
 38  7  1  0  0  0  0
  8  4  1  0  0  0  0
 39  8  1  0  0  0  0
 40  8  1  0  0  0  0
 11 10  2  0  0  0  0
 41 12  1  0  0  0  0
 42 12  1  0  0  0  0
 13 12  1  0  0  0  0
 14 13  1  0  0  0  0
 20 14  2  0  0  0  0
 15 14  1  0  0  0  0
 16 15  1  0  0  0  0
 43 16  1  0  0  0  0
 44 16  1  0  0  0  0
 45 16  1  0  0  0  0
 17 13  2  0  0  0  0
 18 17  1  0  0  0  0
 19 18  2  0  0  0  0
 46 19  1  0  0  0  0
 21 17  1  0  0  0  0
 29 21  1  0  0  0  0
 22 21  1  0  0  0  0
 23 22  1  0  0  0  0
 47 22  1  0  0  0  0
 48 23  1  0  0  0  0
 49 23  1  0  0  0  0
 24 23  1  0  0  0  0
 50 24  1  0  0  0  0
 25 24  1  0  0  0  0
 51 25  1  0  0  0  0
 52 25  1  0  0  0  0
 53 25  1  0  0  0  0
 26 24  1  0  0  0  0
 54 26  1  0  0  0  0
 55 26  1  0  0  0  0
 56 26  1  0  0  0  0
 27 22  1  0  0  0  0
 57 27  1  0  0  0  0
 58 27  1  0  0  0  0
 28 27  1  0  0  0  0
 59 28  1  0  0  0  0
 60 28  1  0  0  0  0
 61 29  1  0  0  0  0
 62 29  1  0  0  0  0
  9  8  1  0  0  0  0
 20 19  1  0  0  0  0
 29 28  1  0  0  0  0
M  END
>  <FittedScore>
-36.43

$$$$
