A71EV2A-x7318a_lowest-energy
  FITTED

 62 65     0  0  0  0  0  0  0999 V2000
    9.4756    8.5424   23.4639 C    0  0  0  0  0  0  0  0  0  0  0  0
    9.2493   10.3314   23.6665 S    0  0  0  0  0  0  0  0  0  0  0  0
    7.8904   10.6136   24.7958 C    0  0  0  0  0  0  0  0  0  0  0  0
    7.0475    9.5570   25.1723 C    0  0  0  0  0  0  0  0  0  0  0  0
    6.0230    9.7533   26.0957 C    0  0  0  0  0  0  0  0  0  0  0  0
    5.7670   11.0187   26.6444 C    0  0  0  0  0  0  0  0  0  0  0  0
    4.6512   11.1568   27.6668 C    0  0  0  0  0  0  0  0  0  0  0  0
    4.1803   10.1832   28.2267 O    0  0  0  0  0  0  0  0  0  0  0  0
    4.1476   12.4089   27.9157 N    0  0  0  0  0  0  0  0  0  0  0  0
    3.6604   13.2935   26.7966 C    0  0  0  0  0  0  0  0  0  0  0  0
    2.1515   13.5038   26.8407 C    0  0  0  0  0  0  0  0  0  0  0  0
    1.4081   13.1922   27.8994 C    0  0  0  0  0  0  0  0  0  0  0  0
    2.0016   12.6041   29.1743 C    0  0  0  0  0  0  0  0  0  0  0  0
    3.5606   12.7953   29.2499 C    0  0  0  0  0  0  0  0  0  0  0  0
    4.2813   12.1887   30.5228 C    0  0  0  0  0  0  0  0  0  0  0  0
    4.0817   13.5660   31.2266 C    0  0  0  0  0  0  0  0  0  0  0  0
    4.0760   14.1860   29.7935 C    0  0  0  0  0  0  0  0  0  0  0  0
    6.5927   12.0890   26.2379 C    0  0  0  0  0  0  0  0  0  0  0  0
    7.6463   11.9038   25.3237 C    0  0  0  0  0  0  0  0  0  0  0  0
    8.4918   13.1282   24.9411 C    0  0  0  0  0  0  0  0  0  0  0  0
    8.2057   13.7098   23.5478 C    0  0  0  0  0  0  0  0  0  0  0  0
    7.4029   13.1562   22.8107 O    0  0  0  0  0  0  0  0  0  0  0  0
    8.9209   14.8107   23.1273 N    0  0  0  0  0  0  0  0  0  0  0  0
    9.8651   15.6515   23.9476 C    0  0  0  0  0  0  0  0  0  0  0  0
   11.3124   15.6603   23.3841 C    0  0  0  0  0  0  0  0  0  0  0  0
   11.3510   16.0609   21.8862 C    0  0  0  0  0  0  0  0  0  0  0  0
   10.3121   15.2459   21.0673 C    0  0  0  0  0  0  0  0  0  0  0  0
   10.2997   15.6896   19.6121 C    0  0  0  0  0  0  0  0  0  0  0  0
   10.8600   14.8335   18.7420 N    0  0  0  0  0  0  0  0  0  0  0  0
    9.7477   16.7018   19.2230 O    0  0  0  0  0  0  0  0  0  0  0  0
    8.8933   15.3010   21.7135 C    0  0  0  0  0  0  0  0  0  0  0  0
   10.3978    8.3596   22.9107 H    0  0  0  0  0  0  0  0  0  0  0  0
    8.6452    8.1175   22.8967 H    0  0  0  0  0  0  0  0  0  0  0  0
    9.5561    8.0597   24.4394 H    0  0  0  0  0  0  0  0  0  0  0  0
    7.1643    8.5614   24.7639 H    0  0  0  0  0  0  0  0  0  0  0  0
    5.4121    8.8935   26.3670 H    0  0  0  0  0  0  0  0  0  0  0  0
    3.8983   12.8760   25.8128 H    0  0  0  0  0  0  0  0  0  0  0  0
    4.1710   14.2594   26.8411 H    0  0  0  0  0  0  0  0  0  0  0  0
    1.6641   13.9237   25.9637 H    0  0  0  0  0  0  0  0  0  0  0  0
    0.3368   13.3705   27.8543 H    0  0  0  0  0  0  0  0  0  0  0  0
    1.7614   11.5379   29.2112 H    0  0  0  0  0  0  0  0  0  0  0  0
    1.5067   13.0549   30.0380 H    0  0  0  0  0  0  0  0  0  0  0  0
    5.3376   11.9171   30.3828 H    0  0  0  0  0  0  0  0  0  0  0  0
    3.7858   11.3338   30.9976 H    0  0  0  0  0  0  0  0  0  0  0  0
    4.9009   13.8871   31.8785 H    0  0  0  0  0  0  0  0  0  0  0  0
    3.1459   13.6701   31.7881 H    0  0  0  0  0  0  0  0  0  0  0  0
    5.0707   14.4907   29.4425 H    0  0  0  0  0  0  0  0  0  0  0  0
    3.4062   15.0387   29.6480 H    0  0  0  0  0  0  0  0  0  0  0  0
    6.4401   13.0738   26.6612 H    0  0  0  0  0  0  0  0  0  0  0  0
    9.5532   12.8751   25.0137 H    0  0  0  0  0  0  0  0  0  0  0  0
    8.3287   13.9077   25.6874 H    0  0  0  0  0  0  0  0  0  0  0  0
    9.9233   15.3554   24.9932 H    0  0  0  0  0  0  0  0  0  0  0  0
    9.4868   16.6790   23.9754 H    0  0  0  0  0  0  0  0  0  0  0  0
   11.7569   14.6664   23.5045 H    0  0  0  0  0  0  0  0  0  0  0  0
   11.9317   16.3533   23.9606 H    0  0  0  0  0  0  0  0  0  0  0  0
   12.3543   15.8750   21.4963 H    0  0  0  0  0  0  0  0  0  0  0  0
   11.1581   17.1353   21.7757 H    0  0  0  0  0  0  0  0  0  0  0  0
   10.6301   14.1960   21.1146 H    0  0  0  0  0  0  0  0  0  0  0  0
   11.1572   13.9053   19.0490 H    0  0  0  0  0  0  0  0  0  0  0  0
   10.8220   15.0323   17.7523 H    0  0  0  0  0  0  0  0  0  0  0  0
    8.2116   14.7323   21.0733 H    0  0  0  0  0  0  0  0  0  0  0  0
    8.5077   16.3269   21.6972 H    0  0  0  0  0  0  0  0  0  0  0  0
 18 19  2  0  0  0  0
  6 18  1  0  0  0  0
  5  6  2  0  0  0  0
  4  5  1  0  0  0  0
  3  4  2  0  0  0  0
  2  3  1  0  0  0  0
  1  2  1  0  0  0  0
 32  1  1  0  0  0  0
 33  1  1  0  0  0  0
 34  1  1  0  0  0  0
 35  4  1  0  0  0  0
 36  5  1  0  0  0  0
  7  6  1  0  0  0  0
  8  7  2  0  0  0  0
  9  7  1  0  0  0  0
 10  9  1  0  0  0  0
 11 10  1  0  0  0  0
 37 10  1  0  0  0  0
 38 10  1  0  0  0  0
 12 11  2  0  0  0  0
 39 11  1  0  0  0  0
 13 12  1  0  0  0  0
 40 12  1  0  0  0  0
 14 13  1  0  0  0  0
 41 13  1  0  0  0  0
 42 13  1  0  0  0  0
 15 14  1  0  0  0  0
 16 15  1  0  0  0  0
 43 15  1  0  0  0  0
 44 15  1  0  0  0  0
 17 16  1  0  0  0  0
 45 16  1  0  0  0  0
 46 16  1  0  0  0  0
 47 17  1  0  0  0  0
 48 17  1  0  0  0  0
 49 18  1  0  0  0  0
 20 19  1  0  0  0  0
 21 20  1  0  0  0  0
 50 20  1  0  0  0  0
 51 20  1  0  0  0  0
 22 21  2  0  0  0  0
 23 21  1  0  0  0  0
 24 23  1  0  0  0  0
 25 24  1  0  0  0  0
 52 24  1  0  0  0  0
 53 24  1  0  0  0  0
 26 25  1  0  0  0  0
 54 25  1  0  0  0  0
 55 25  1  0  0  0  0
 27 26  1  0  0  0  0
 56 26  1  0  0  0  0
 57 26  1  0  0  0  0
 28 27  1  0  0  0  0
 31 27  1  0  0  0  0
 58 27  1  0  0  0  0
 29 28  1  0  0  0  0
 30 28  2  0  0  0  0
 59 29  1  0  0  0  0
 60 29  1  0  0  0  0
 61 31  1  0  0  0  0
 62 31  1  0  0  0  0
 14  9  1  0  0  0  0
 17 14  1  0  0  0  0
 19  3  1  0  0  0  0
 31 23  1  0  0  0  0
M  END
>  <FittedScore>
-38.04

$$$$
