A71EV2A-x6778a_best-RMSD
  FITTED

 58 60     0  0  0  0  0  0  0999 V2000
    9.4448    8.5060   23.8186 C    0  0  0  0  0  0  0  0  0  0  0  0
    9.3308   10.2485   24.3240 S    0  0  0  0  0  0  0  0  0  0  0  0
    7.6917   10.5694   25.0032 C    0  0  0  0  0  0  0  0  0  0  0  0
    6.7634    9.5306   25.1811 C    0  0  0  0  0  0  0  0  0  0  0  0
    5.4972    9.7689   25.7179 C    0  0  0  0  0  0  0  0  0  0  0  0
    5.1013   11.0600   26.1313 C    0  0  0  0  0  0  0  0  0  0  0  0
    3.7353   11.3225   26.7135 C    0  0  0  0  0  0  0  0  0  0  0  0
    2.9181   12.3133   26.1017 C    0  0  0  0  0  0  0  0  0  0  0  0
    1.6214   12.5624   26.5697 C    0  0  0  0  0  0  0  0  0  0  0  0
    1.1405   11.8257   27.6526 C    0  0  0  0  0  0  0  0  0  0  0  0
    1.9012   10.8920   28.2701 N    0  0  0  0  0  0  0  0  0  0  0  0
    3.1771   10.6325   27.8479 C    0  0  0  0  0  0  0  0  0  0  0  0
    3.9470    9.5842   28.6855 C    0  0  0  0  0  0  0  0  0  0  0  0
    4.1619    9.9989   30.1666 C    0  0  0  0  0  0  0  0  0  0  0  0
    3.3214    8.1635   28.6028 C    0  0  0  0  0  0  0  0  0  0  0  0
    6.0264   12.1093   25.9215 C    0  0  0  0  0  0  0  0  0  0  0  0
    7.3009   11.8839   25.3645 C    0  0  0  0  0  0  0  0  0  0  0  0
    8.1830   13.1126   25.0835 C    0  0  0  0  0  0  0  0  0  0  0  0
    8.1628   13.5574   23.6091 C    0  0  0  0  0  0  0  0  0  0  0  0
    7.3306   13.0781   22.8534 O    0  0  0  0  0  0  0  0  0  0  0  0
    9.0244   14.5511   23.1814 N    0  0  0  0  0  0  0  0  0  0  0  0
    9.8370   15.4561   24.0726 C    0  0  0  0  0  0  0  0  0  0  0  0
   11.2708   15.7541   23.5545 C    0  0  0  0  0  0  0  0  0  0  0  0
   11.2620   16.2827   22.0983 C    0  0  0  0  0  0  0  0  0  0  0  0
   10.4883   15.2909   21.1876 C    0  0  0  0  0  0  0  0  0  0  0  0
   10.4526   15.7719   19.7346 C    0  0  0  0  0  0  0  0  0  0  0  0
   10.8717   14.8849   18.8109 N    0  0  0  0  0  0  0  0  0  0  0  0
    9.9282   16.8105   19.3804 O    0  0  0  0  0  0  0  0  0  0  0  0
    9.0552   15.0296   21.7557 C    0  0  0  0  0  0  0  0  0  0  0  0
   10.4239    8.3270   23.3712 H    0  0  0  0  0  0  0  0  0  0  0  0
    8.6707    8.2737   23.0843 H    0  0  0  0  0  0  0  0  0  0  0  0
    9.3383    7.8573   24.6919 H    0  0  0  0  0  0  0  0  0  0  0  0
    6.9952    8.5090   24.9085 H    0  0  0  0  0  0  0  0  0  0  0  0
    4.8134    8.9272   25.8171 H    0  0  0  0  0  0  0  0  0  0  0  0
    3.2779   12.8834   25.2468 H    0  0  0  0  0  0  0  0  0  0  0  0
    0.9936   13.3142   26.0980 H    0  0  0  0  0  0  0  0  0  0  0  0
    0.1322   12.0108   28.0148 H    0  0  0  0  0  0  0  0  0  0  0  0
    4.9654    9.4798   28.3134 H    0  0  0  0  0  0  0  0  0  0  0  0
    3.2171   10.0313   30.7171 H    0  0  0  0  0  0  0  0  0  0  0  0
    4.6165   10.9915   30.2256 H    0  0  0  0  0  0  0  0  0  0  0  0
    4.8265    9.2989   30.6808 H    0  0  0  0  0  0  0  0  0  0  0  0
    3.1646    7.8693   27.5615 H    0  0  0  0  0  0  0  0  0  0  0  0
    2.3530    8.1194   29.1084 H    0  0  0  0  0  0  0  0  0  0  0  0
    3.9754    7.4164   29.0606 H    0  0  0  0  0  0  0  0  0  0  0  0
    5.7427   13.1255   26.1900 H    0  0  0  0  0  0  0  0  0  0  0  0
    9.2015   12.8945   25.4153 H    0  0  0  0  0  0  0  0  0  0  0  0
    7.8592   13.9546   25.7023 H    0  0  0  0  0  0  0  0  0  0  0  0
    9.9631   15.0616   25.0785 H    0  0  0  0  0  0  0  0  0  0  0  0
    9.2952   16.3973   24.1995 H    0  0  0  0  0  0  0  0  0  0  0  0
   11.8752   14.8439   23.6133 H    0  0  0  0  0  0  0  0  0  0  0  0
   11.7496   16.4904   24.2054 H    0  0  0  0  0  0  0  0  0  0  0  0
   12.2865   16.4064   21.7383 H    0  0  0  0  0  0  0  0  0  0  0  0
   10.7920   17.2708   22.0651 H    0  0  0  0  0  0  0  0  0  0  0  0
   11.0219   14.3324   21.2314 H    0  0  0  0  0  0  0  0  0  0  0  0
   11.0944   13.9325   19.0875 H    0  0  0  0  0  0  0  0  0  0  0  0
   10.7814   15.1049   17.8279 H    0  0  0  0  0  0  0  0  0  0  0  0
    8.5785   14.3109   21.0799 H    0  0  0  0  0  0  0  0  0  0  0  0
    8.4568   15.9440   21.6858 H    0  0  0  0  0  0  0  0  0  0  0  0
 16 17  2  0  0  0  0
  6 16  1  0  0  0  0
  5  6  2  0  0  0  0
  4  5  1  0  0  0  0
  3  4  2  0  0  0  0
  2  3  1  0  0  0  0
  1  2  1  0  0  0  0
 30  1  1  0  0  0  0
 31  1  1  0  0  0  0
 32  1  1  0  0  0  0
 33  4  1  0  0  0  0
 34  5  1  0  0  0  0
  7  6  1  0  0  0  0
  8  7  2  0  0  0  0
  9  8  1  0  0  0  0
 35  8  1  0  0  0  0
 10  9  2  0  0  0  0
 36  9  1  0  0  0  0
 11 10  1  0  0  0  0
 37 10  1  0  0  0  0
 12 11  2  0  0  0  0
 13 12  1  0  0  0  0
 14 13  1  0  0  0  0
 15 13  1  0  0  0  0
 38 13  1  0  0  0  0
 39 14  1  0  0  0  0
 40 14  1  0  0  0  0
 41 14  1  0  0  0  0
 42 15  1  0  0  0  0
 43 15  1  0  0  0  0
 44 15  1  0  0  0  0
 45 16  1  0  0  0  0
 18 17  1  0  0  0  0
 19 18  1  0  0  0  0
 46 18  1  0  0  0  0
 47 18  1  0  0  0  0
 20 19  2  0  0  0  0
 21 19  1  0  0  0  0
 22 21  1  0  0  0  0
 23 22  1  0  0  0  0
 48 22  1  0  0  0  0
 49 22  1  0  0  0  0
 24 23  1  0  0  0  0
 50 23  1  0  0  0  0
 51 23  1  0  0  0  0
 25 24  1  0  0  0  0
 52 24  1  0  0  0  0
 53 24  1  0  0  0  0
 26 25  1  0  0  0  0
 29 25  1  0  0  0  0
 54 25  1  0  0  0  0
 27 26  1  0  0  0  0
 28 26  2  0  0  0  0
 55 27  1  0  0  0  0
 56 27  1  0  0  0  0
 57 29  1  0  0  0  0
 58 29  1  0  0  0  0
 12  7  1  0  0  0  0
 17  3  1  0  0  0  0
 29 21  1  0  0  0  0
M  END
>  <FittedScore>
-37.17

$$$$
