A71EV2A-x6778a_lowest-energy
  FITTED

 58 60     0  0  0  0  0  0  0999 V2000
    9.4799    8.5343   23.6779 C    0  0  0  0  0  0  0  0  0  0  0  0
    9.3953   10.2240   24.3360 S    0  0  0  0  0  0  0  0  0  0  0  0
    7.7419   10.5168   24.9873 C    0  0  0  0  0  0  0  0  0  0  0  0
    6.8277    9.4618   25.1325 C    0  0  0  0  0  0  0  0  0  0  0  0
    5.5435    9.6744   25.6360 C    0  0  0  0  0  0  0  0  0  0  0  0
    5.1211   10.9535   26.0624 C    0  0  0  0  0  0  0  0  0  0  0  0
    3.7281   11.1976   26.5809 C    0  0  0  0  0  0  0  0  0  0  0  0
    2.9573   12.2195   25.9602 C    0  0  0  0  0  0  0  0  0  0  0  0
    1.6388   12.4631   26.3579 C    0  0  0  0  0  0  0  0  0  0  0  0
    1.0855   11.6912   27.3798 C    0  0  0  0  0  0  0  0  0  0  0  0
    1.7994   10.7253   28.0075 N    0  0  0  0  0  0  0  0  0  0  0  0
    3.0975   10.4710   27.6517 C    0  0  0  0  0  0  0  0  0  0  0  0
    3.8211    9.4075   28.5120 C    0  0  0  0  0  0  0  0  0  0  0  0
    4.1085    9.8945   29.9551 C    0  0  0  0  0  0  0  0  0  0  0  0
    3.1172    8.0214   28.5211 C    0  0  0  0  0  0  0  0  0  0  0  0
    6.0398   12.0164   25.8959 C    0  0  0  0  0  0  0  0  0  0  0  0
    7.3266   11.8195   25.3585 C    0  0  0  0  0  0  0  0  0  0  0  0
    8.1818   13.0684   25.0828 C    0  0  0  0  0  0  0  0  0  0  0  0
    8.1189   13.5349   23.6148 C    0  0  0  0  0  0  0  0  0  0  0  0
    7.2523   13.0773   22.8845 O    0  0  0  0  0  0  0  0  0  0  0  0
    8.9852   14.5165   23.1674 N    0  0  0  0  0  0  0  0  0  0  0  0
    9.8478   15.3938   24.0382 C    0  0  0  0  0  0  0  0  0  0  0  0
   11.2909   15.6049   23.5062 C    0  0  0  0  0  0  0  0  0  0  0  0
   11.2917   16.1388   22.0527 C    0  0  0  0  0  0  0  0  0  0  0  0
   10.4332   15.2120   21.1478 C    0  0  0  0  0  0  0  0  0  0  0  0
   10.3954   15.7386   19.7119 C    0  0  0  0  0  0  0  0  0  0  0  0
   10.8164   14.8846   18.7607 N    0  0  0  0  0  0  0  0  0  0  0  0
    9.8990   16.8043   19.3991 O    0  0  0  0  0  0  0  0  0  0  0  0
    9.0005   15.0014   21.7426 C    0  0  0  0  0  0  0  0  0  0  0  0
    8.7222    8.3999   22.9020 H    0  0  0  0  0  0  0  0  0  0  0  0
    9.3329    7.8088   24.4786 H    0  0  0  0  0  0  0  0  0  0  0  0
   10.4650    8.3713   23.2368 H    0  0  0  0  0  0  0  0  0  0  0  0
    7.0811    8.4470   24.8565 H    0  0  0  0  0  0  0  0  0  0  0  0
    4.8667    8.8235   25.6911 H    0  0  0  0  0  0  0  0  0  0  0  0
    3.3684   12.8133   25.1463 H    0  0  0  0  0  0  0  0  0  0  0  0
    1.0540   13.2371   25.8692 H    0  0  0  0  0  0  0  0  0  0  0  0
    0.0573   11.8706   27.6833 H    0  0  0  0  0  0  0  0  0  0  0  0
    4.8159    9.2112   28.1193 H    0  0  0  0  0  0  0  0  0  0  0  0
    4.7326    9.1793   30.4962 H    0  0  0  0  0  0  0  0  0  0  0  0
    3.1842   10.0360   30.5201 H    0  0  0  0  0  0  0  0  0  0  0  0
    4.6397   10.8498   29.9379 H    0  0  0  0  0  0  0  0  0  0  0  0
    2.9261    7.6840   27.4989 H    0  0  0  0  0  0  0  0  0  0  0  0
    2.1607    8.0549   29.0493 H    0  0  0  0  0  0  0  0  0  0  0  0
    3.7435    7.2672   29.0037 H    0  0  0  0  0  0  0  0  0  0  0  0
    5.7361   13.0237   26.1721 H    0  0  0  0  0  0  0  0  0  0  0  0
    9.2111   12.8631   25.3889 H    0  0  0  0  0  0  0  0  0  0  0  0
    7.8565   13.8919   25.7256 H    0  0  0  0  0  0  0  0  0  0  0  0
    9.9518   15.0206   25.0546 H    0  0  0  0  0  0  0  0  0  0  0  0
    9.3538   16.3664   24.1397 H    0  0  0  0  0  0  0  0  0  0  0  0
   11.8389   14.6578   23.5525 H    0  0  0  0  0  0  0  0  0  0  0  0
   11.8205   16.3113   24.1506 H    0  0  0  0  0  0  0  0  0  0  0  0
   12.3181   16.1838   21.6752 H    0  0  0  0  0  0  0  0  0  0  0  0
   10.9010   17.1621   22.0326 H    0  0  0  0  0  0  0  0  0  0  0  0
   10.9160   14.2248   21.1540 H    0  0  0  0  0  0  0  0  0  0  0  0
   10.7464   15.1536   17.7896 H    0  0  0  0  0  0  0  0  0  0  0  0
   11.0273   13.9144   18.9928 H    0  0  0  0  0  0  0  0  0  0  0  0
    8.4841   14.3035   21.0756 H    0  0  0  0  0  0  0  0  0  0  0  0
    8.4354   15.9369   21.6871 H    0  0  0  0  0  0  0  0  0  0  0  0
 16 17  2  0  0  0  0
  6 16  1  0  0  0  0
  5  6  2  0  0  0  0
  4  5  1  0  0  0  0
  3  4  2  0  0  0  0
  2  3  1  0  0  0  0
  1  2  1  0  0  0  0
 30  1  1  0  0  0  0
 31  1  1  0  0  0  0
 32  1  1  0  0  0  0
 33  4  1  0  0  0  0
 34  5  1  0  0  0  0
  7  6  1  0  0  0  0
  8  7  2  0  0  0  0
  9  8  1  0  0  0  0
 35  8  1  0  0  0  0
 10  9  2  0  0  0  0
 36  9  1  0  0  0  0
 11 10  1  0  0  0  0
 37 10  1  0  0  0  0
 12 11  2  0  0  0  0
 13 12  1  0  0  0  0
 14 13  1  0  0  0  0
 15 13  1  0  0  0  0
 38 13  1  0  0  0  0
 39 14  1  0  0  0  0
 40 14  1  0  0  0  0
 41 14  1  0  0  0  0
 42 15  1  0  0  0  0
 43 15  1  0  0  0  0
 44 15  1  0  0  0  0
 45 16  1  0  0  0  0
 18 17  1  0  0  0  0
 19 18  1  0  0  0  0
 46 18  1  0  0  0  0
 47 18  1  0  0  0  0
 20 19  2  0  0  0  0
 21 19  1  0  0  0  0
 22 21  1  0  0  0  0
 23 22  1  0  0  0  0
 48 22  1  0  0  0  0
 49 22  1  0  0  0  0
 24 23  1  0  0  0  0
 50 23  1  0  0  0  0
 51 23  1  0  0  0  0
 25 24  1  0  0  0  0
 52 24  1  0  0  0  0
 53 24  1  0  0  0  0
 26 25  1  0  0  0  0
 29 25  1  0  0  0  0
 54 25  1  0  0  0  0
 27 26  1  0  0  0  0
 28 26  2  0  0  0  0
 55 27  1  0  0  0  0
 56 27  1  0  0  0  0
 57 29  1  0  0  0  0
 58 29  1  0  0  0  0
 12  7  1  0  0  0  0
 17  3  1  0  0  0  0
 29 21  1  0  0  0  0
M  END
>  <FittedScore>
-38.34

$$$$
