A71EV2A-x5424b_best-RMSD
  FITTED

 36 37     0  0  0  0  0  0  0999 V2000
    9.8171   16.8210   19.4714 O    0  0  0  0  0  0  0  0  0  0  0  0
   10.2342   15.7161   19.7752 C    0  0  0  0  0  0  0  0  0  0  0  0
   10.7288   14.8826   18.8400 N    0  0  0  0  0  0  0  0  0  0  0  0
   10.1303   15.1226   21.1777 C    0  0  0  0  0  0  0  0  0  0  0  0
   11.2498   15.6961   22.0849 C    0  0  0  0  0  0  0  0  0  0  0  0
   11.1389   15.0946   23.5065 C    0  0  0  0  0  0  0  0  0  0  0  0
    9.6868   15.1764   24.0810 C    0  0  0  0  0  0  0  0  0  0  0  0
    8.7291   15.3481   21.8149 C    0  0  0  0  0  0  0  0  0  0  0  0
    8.5936   14.6943   23.1511 N    0  0  0  0  0  0  0  0  0  0  0  0
    7.5833   13.7883   23.4283 C    0  0  0  0  0  0  0  0  0  0  0  0
    6.8824   13.2992   22.5469 O    0  0  0  0  0  0  0  0  0  0  0  0
    7.4321   13.1880   24.8241 C    0  0  0  0  0  0  0  0  0  0  0  0
    8.0335   11.7953   24.8393 C    0  0  0  0  0  0  0  0  0  0  0  0
    7.4062   10.6986   25.4122 C    0  0  0  0  0  0  0  0  0  0  0  0
    7.9707    9.4961   25.0175 C    0  0  0  0  0  0  0  0  0  0  0  0
    9.4837   11.3341   23.9241 S    0  0  0  0  0  0  0  0  0  0  0  0
    9.0702    9.6447   24.1871 C    0  0  0  0  0  0  0  0  0  0  0  0
    9.8210    8.5037   23.5416 C    0  0  0  0  0  0  0  0  0  0  0  0
   10.9205   13.9118   19.0828 H    0  0  0  0  0  0  0  0  0  0  0  0
   10.7689   15.1679   17.8646 H    0  0  0  0  0  0  0  0  0  0  0  0
   10.2763   14.0322   21.1181 H    0  0  0  0  0  0  0  0  0  0  0  0
   12.2340   15.4567   21.6663 H    0  0  0  0  0  0  0  0  0  0  0  0
   11.1790   16.7874   22.1332 H    0  0  0  0  0  0  0  0  0  0  0  0
   11.4566   14.0472   23.4831 H    0  0  0  0  0  0  0  0  0  0  0  0
   11.8313   15.6190   24.1713 H    0  0  0  0  0  0  0  0  0  0  0  0
    9.7351   14.6216   25.0165 H    0  0  0  0  0  0  0  0  0  0  0  0
    9.4718   16.2115   24.3608 H    0  0  0  0  0  0  0  0  0  0  0  0
    7.9725   15.0145   21.1035 H    0  0  0  0  0  0  0  0  0  0  0  0
    8.5517   16.4198   21.9404 H    0  0  0  0  0  0  0  0  0  0  0  0
    7.8261   13.7999   25.6339 H    0  0  0  0  0  0  0  0  0  0  0  0
    6.3627   13.1221   25.0365 H    0  0  0  0  0  0  0  0  0  0  0  0
    6.5152   10.7676   26.0304 H    0  0  0  0  0  0  0  0  0  0  0  0
    7.5631    8.5326   25.3113 H    0  0  0  0  0  0  0  0  0  0  0  0
    9.2562    8.1370   22.6813 H    0  0  0  0  0  0  0  0  0  0  0  0
    9.9806    7.6807   24.2433 H    0  0  0  0  0  0  0  0  0  0  0  0
   10.8027    8.8379   23.1948 H    0  0  0  0  0  0  0  0  0  0  0  0
  7  9  1  0  0  0  0
  6  7  1  0  0  0  0
  5  6  1  0  0  0  0
  4  5  1  0  0  0  0
  2  4  1  0  0  0  0
  1  2  2  0  0  0  0
  3  2  1  0  0  0  0
 19  3  1  0  0  0  0
 20  3  1  0  0  0  0
 21  4  1  0  0  0  0
 22  5  1  0  0  0  0
 23  5  1  0  0  0  0
 24  6  1  0  0  0  0
 25  6  1  0  0  0  0
 26  7  1  0  0  0  0
 27  7  1  0  0  0  0
  8  4  1  0  0  0  0
 28  8  1  0  0  0  0
 29  8  1  0  0  0  0
 10  9  1  0  0  0  0
 11 10  2  0  0  0  0
 12 10  1  0  0  0  0
 30 12  1  0  0  0  0
 31 12  1  0  0  0  0
 13 12  1  0  0  0  0
 14 13  2  0  0  0  0
 32 14  1  0  0  0  0
 15 14  1  0  0  0  0
 33 15  1  0  0  0  0
 16 13  1  0  0  0  0
 17 15  2  0  0  0  0
 18 17  1  0  0  0  0
 34 18  1  0  0  0  0
 35 18  1  0  0  0  0
 36 18  1  0  0  0  0
  9  8  1  0  0  0  0
 17 16  1  0  0  0  0
M  END
>  <FittedScore>
-32.10

$$$$
