A71EV2A-x5424b_lowest-energy
  FITTED

 36 37     0  0  0  0  0  0  0999 V2000
    9.6522   16.7839   19.4550 O    0  0  0  0  0  0  0  0  0  0  0  0
   10.0858   15.6937   19.7813 C    0  0  0  0  0  0  0  0  0  0  0  0
   10.6243   14.8636   18.8630 N    0  0  0  0  0  0  0  0  0  0  0  0
    9.9608   15.1174   21.1933 C    0  0  0  0  0  0  0  0  0  0  0  0
   11.0433   15.7108   22.1411 C    0  0  0  0  0  0  0  0  0  0  0  0
   10.8857   15.1520   23.5786 C    0  0  0  0  0  0  0  0  0  0  0  0
    9.4183   15.2268   24.0960 C    0  0  0  0  0  0  0  0  0  0  0  0
    8.5381   15.3063   21.7964 C    0  0  0  0  0  0  0  0  0  0  0  0
    8.3883   14.6740   23.1437 N    0  0  0  0  0  0  0  0  0  0  0  0
    7.3971   13.7464   23.4192 C    0  0  0  0  0  0  0  0  0  0  0  0
    6.6714   13.2918   22.5461 O    0  0  0  0  0  0  0  0  0  0  0  0
    7.2788   13.1039   24.8037 C    0  0  0  0  0  0  0  0  0  0  0  0
    7.9130   11.7229   24.7983 C    0  0  0  0  0  0  0  0  0  0  0  0
    7.3392   10.6201   25.4120 C    0  0  0  0  0  0  0  0  0  0  0  0
    7.9287    9.4280   25.0328 C    0  0  0  0  0  0  0  0  0  0  0  0
    9.3395   11.2940   23.8322 S    0  0  0  0  0  0  0  0  0  0  0  0
    9.0040    9.5955   24.1729 C    0  0  0  0  0  0  0  0  0  0  0  0
    9.7815    8.4572   23.5525 C    0  0  0  0  0  0  0  0  0  0  0  0
   10.6844   15.1518   17.8933 H    0  0  0  0  0  0  0  0  0  0  0  0
   10.8156   13.8920   19.1025 H    0  0  0  0  0  0  0  0  0  0  0  0
   10.1247   14.0312   21.1524 H    0  0  0  0  0  0  0  0  0  0  0  0
   12.0377   15.4587   21.7656 H    0  0  0  0  0  0  0  0  0  0  0  0
   10.9766   16.8027   22.1594 H    0  0  0  0  0  0  0  0  0  0  0  0
   11.2216   14.1095   23.6032 H    0  0  0  0  0  0  0  0  0  0  0  0
   11.5366   15.7090   24.2558 H    0  0  0  0  0  0  0  0  0  0  0  0
    9.4336   14.7227   25.0587 H    0  0  0  0  0  0  0  0  0  0  0  0
    9.1619   16.2681   24.3151 H    0  0  0  0  0  0  0  0  0  0  0  0
    7.8148   14.9218   21.0715 H    0  0  0  0  0  0  0  0  0  0  0  0
    8.2993   16.3715   21.8865 H    0  0  0  0  0  0  0  0  0  0  0  0
    7.6475   13.7020   25.6377 H    0  0  0  0  0  0  0  0  0  0  0  0
    6.2123   12.9988   25.0240 H    0  0  0  0  0  0  0  0  0  0  0  0
    6.4650   10.6703   26.0549 H    0  0  0  0  0  0  0  0  0  0  0  0
    7.5708    8.4563   25.3648 H    0  0  0  0  0  0  0  0  0  0  0  0
    9.8244    7.5917   24.2185 H    0  0  0  0  0  0  0  0  0  0  0  0
   10.8083    8.7581   23.3358 H    0  0  0  0  0  0  0  0  0  0  0  0
    9.3016    8.1520   22.6209 H    0  0  0  0  0  0  0  0  0  0  0  0
  7  9  1  0  0  0  0
  6  7  1  0  0  0  0
  5  6  1  0  0  0  0
  4  5  1  0  0  0  0
  2  4  1  0  0  0  0
  1  2  2  0  0  0  0
  3  2  1  0  0  0  0
 19  3  1  0  0  0  0
 20  3  1  0  0  0  0
 21  4  1  0  0  0  0
 22  5  1  0  0  0  0
 23  5  1  0  0  0  0
 24  6  1  0  0  0  0
 25  6  1  0  0  0  0
 26  7  1  0  0  0  0
 27  7  1  0  0  0  0
  8  4  1  0  0  0  0
 28  8  1  0  0  0  0
 29  8  1  0  0  0  0
 10  9  1  0  0  0  0
 11 10  2  0  0  0  0
 12 10  1  0  0  0  0
 30 12  1  0  0  0  0
 31 12  1  0  0  0  0
 13 12  1  0  0  0  0
 14 13  2  0  0  0  0
 32 14  1  0  0  0  0
 15 14  1  0  0  0  0
 33 15  1  0  0  0  0
 16 13  1  0  0  0  0
 17 15  2  0  0  0  0
 18 17  1  0  0  0  0
 34 18  1  0  0  0  0
 35 18  1  0  0  0  0
 36 18  1  0  0  0  0
  9  8  1  0  0  0  0
 17 16  1  0  0  0  0
M  END
>  <FittedScore>
-32.44

$$$$
