A71EV2A-x4381a_best-RMSD
  FITTED

 42 43     0  0  0  0  0  0  0999 V2000
    4.5586   12.5134   25.9603 F    0  0  0  0  0  0  0  0  0  0  0  0
    5.5471   12.0240   26.7074 C    0  0  0  0  0  0  0  0  0  0  0  0
    4.9748   11.2156   27.6172 F    0  0  0  0  0  0  0  0  0  0  0  0
    6.0995   13.0124   27.4236 F    0  0  0  0  0  0  0  0  0  0  0  0
    6.5781   11.3550   25.8155 C    0  0  0  0  0  0  0  0  0  0  0  0
    6.6693    9.9544   25.8752 C    0  0  0  0  0  0  0  0  0  0  0  0
    7.6744    9.2966   25.1993 C    0  0  0  0  0  0  0  0  0  0  0  0
    8.6328   10.0195   24.4898 C    0  0  0  0  0  0  0  0  0  0  0  0
    9.7943    9.3160   23.8508 C    0  0  0  0  0  0  0  0  0  0  0  0
   10.8875    9.5760   24.5709 F    0  0  0  0  0  0  0  0  0  0  0  0
    9.9393    9.7133   22.5804 F    0  0  0  0  0  0  0  0  0  0  0  0
    9.6307    7.9970   23.8130 F    0  0  0  0  0  0  0  0  0  0  0  0
    8.5363   11.4132   24.3863 C    0  0  0  0  0  0  0  0  0  0  0  0
    7.4601   12.0947   24.9706 C    0  0  0  0  0  0  0  0  0  0  0  0
    7.2702   13.5897   24.6158 C    0  0  0  0  0  0  0  0  0  0  0  0
    7.6391   13.9280   23.1595 C    0  0  0  0  0  0  0  0  0  0  0  0
    7.0770   13.2986   22.2792 O    0  0  0  0  0  0  0  0  0  0  0  0
    8.5886   14.8743   22.8614 N    0  0  0  0  0  0  0  0  0  0  0  0
    9.6287   15.4251   23.7989 C    0  0  0  0  0  0  0  0  0  0  0  0
   11.0739   15.4752   23.2255 C    0  0  0  0  0  0  0  0  0  0  0  0
   11.1403   16.0644   21.7929 C    0  0  0  0  0  0  0  0  0  0  0  0
    8.6673   15.5383   21.5161 C    0  0  0  0  0  0  0  0  0  0  0  0
   10.0838   15.3717   20.8876 C    0  0  0  0  0  0  0  0  0  0  0  0
   10.1873   15.8814   19.4549 C    0  0  0  0  0  0  0  0  0  0  0  0
    9.7560   16.9454   19.0643 O    0  0  0  0  0  0  0  0  0  0  0  0
   10.7696   15.0395   18.5936 N    0  0  0  0  0  0  0  0  0  0  0  0
    5.9818    9.3451   26.4589 H    0  0  0  0  0  0  0  0  0  0  0  0
    7.7172    8.2137   25.2833 H    0  0  0  0  0  0  0  0  0  0  0  0
    9.2931   11.9535   23.8157 H    0  0  0  0  0  0  0  0  0  0  0  0
    6.2250   13.8814   24.6985 H    0  0  0  0  0  0  0  0  0  0  0  0
    7.7516   14.2003   25.3766 H    0  0  0  0  0  0  0  0  0  0  0  0
    9.3215   16.4232   24.1240 H    0  0  0  0  0  0  0  0  0  0  0  0
    9.7174   14.8164   24.6950 H    0  0  0  0  0  0  0  0  0  0  0  0
   11.7093   16.0578   23.8911 H    0  0  0  0  0  0  0  0  0  0  0  0
   11.4753   14.4532   23.2338 H    0  0  0  0  0  0  0  0  0  0  0  0
   10.9906   17.1522   21.8183 H    0  0  0  0  0  0  0  0  0  0  0  0
   12.1356   15.8878   21.3857 H    0  0  0  0  0  0  0  0  0  0  0  0
    8.4303   16.6059   21.6286 H    0  0  0  0  0  0  0  0  0  0  0  0
    7.9064   15.1601   20.8219 H    0  0  0  0  0  0  0  0  0  0  0  0
   10.2864   14.2947   20.8911 H    0  0  0  0  0  0  0  0  0  0  0  0
   10.7593   15.2738   17.6093 H    0  0  0  0  0  0  0  0  0  0  0  0
   11.0048   14.0920   18.8791 H    0  0  0  0  0  0  0  0  0  0  0  0
 15 16  1  0  0  0  0
 14 15  1  0  0  0  0
 13 14  2  0  0  0  0
  8 13  1  0  0  0  0
  7  8  2  0  0  0  0
  6  7  1  0  0  0  0
  5  6  2  0  0  0  0
  2  5  1  0  0  0  0
  1  2  1  0  0  0  0
  3  2  1  0  0  0  0
  4  2  1  0  0  0  0
 27  6  1  0  0  0  0
 28  7  1  0  0  0  0
  9  8  1  0  0  0  0
 10  9  1  0  0  0  0
 11  9  1  0  0  0  0
 12  9  1  0  0  0  0
 29 13  1  0  0  0  0
 30 15  1  0  0  0  0
 31 15  1  0  0  0  0
 17 16  2  0  0  0  0
 18 16  1  0  0  0  0
 19 18  1  0  0  0  0
 32 19  1  0  0  0  0
 33 19  1  0  0  0  0
 20 19  1  0  0  0  0
 34 20  1  0  0  0  0
 35 20  1  0  0  0  0
 21 20  1  0  0  0  0
 36 21  1  0  0  0  0
 37 21  1  0  0  0  0
 22 18  1  0  0  0  0
 38 22  1  0  0  0  0
 39 22  1  0  0  0  0
 23 21  1  0  0  0  0
 24 23  1  0  0  0  0
 40 23  1  0  0  0  0
 25 24  2  0  0  0  0
 26 24  1  0  0  0  0
 41 26  1  0  0  0  0
 42 26  1  0  0  0  0
 14  5  1  0  0  0  0
 23 22  1  0  0  0  0
M  END
>  <FittedScore>
-32.37

$$$$
