A71EV2A-x4381a_lowest-energy
  FITTED

 42 43     0  0  0  0  0  0  0999 V2000
    9.4417    9.1760   23.3302 F    0  0  0  0  0  0  0  0  0  0  0  0
    9.3952   10.3776   23.9287 C    0  0  0  0  0  0  0  0  0  0  0  0
    9.6513   11.2562   22.9487 F    0  0  0  0  0  0  0  0  0  0  0  0
   10.3834   10.4119   24.8359 F    0  0  0  0  0  0  0  0  0  0  0  0
    8.1052   10.6429   24.6899 C    0  0  0  0  0  0  0  0  0  0  0  0
    7.4013    9.5198   25.1621 C    0  0  0  0  0  0  0  0  0  0  0  0
    6.2799    9.6649   25.9633 C    0  0  0  0  0  0  0  0  0  0  0  0
    5.8451   10.9349   26.3212 C    0  0  0  0  0  0  0  0  0  0  0  0
    4.7258   11.1305   27.3148 C    0  0  0  0  0  0  0  0  0  0  0  0
    3.8165   11.9320   26.7563 F    0  0  0  0  0  0  0  0  0  0  0  0
    5.2443   11.7606   28.3777 F    0  0  0  0  0  0  0  0  0  0  0  0
    4.1068   10.0138   27.7530 F    0  0  0  0  0  0  0  0  0  0  0  0
    6.5138   12.0678   25.8340 C    0  0  0  0  0  0  0  0  0  0  0  0
    7.6590   11.9486   25.0404 C    0  0  0  0  0  0  0  0  0  0  0  0
    8.3756   13.2634   24.6759 C    0  0  0  0  0  0  0  0  0  0  0  0
    8.0558   13.8232   23.2786 C    0  0  0  0  0  0  0  0  0  0  0  0
    7.2520   13.2417   22.5608 O    0  0  0  0  0  0  0  0  0  0  0  0
    8.7655   14.9237   22.8299 N    0  0  0  0  0  0  0  0  0  0  0  0
    9.6881   15.7970   23.6494 C    0  0  0  0  0  0  0  0  0  0  0  0
   11.1428   15.8562   23.1084 C    0  0  0  0  0  0  0  0  0  0  0  0
   11.1682   16.2639   21.6134 C    0  0  0  0  0  0  0  0  0  0  0  0
    8.7541   15.3784   21.3979 C    0  0  0  0  0  0  0  0  0  0  0  0
   10.1948   15.3706   20.7933 C    0  0  0  0  0  0  0  0  0  0  0  0
   10.2278   15.7916   19.3405 C    0  0  0  0  0  0  0  0  0  0  0  0
    9.7029   16.8034   18.9315 O    0  0  0  0  0  0  0  0  0  0  0  0
   10.8824   14.9848   18.4981 N    0  0  0  0  0  0  0  0  0  0  0  0
    7.7253    8.5074   24.9301 H    0  0  0  0  0  0  0  0  0  0  0  0
    5.7772    8.7658   26.3250 H    0  0  0  0  0  0  0  0  0  0  0  0
    6.1568   13.0614   26.1143 H    0  0  0  0  0  0  0  0  0  0  0  0
    8.1280   14.0175   25.4253 H    0  0  0  0  0  0  0  0  0  0  0  0
    9.4542   13.1232   24.7753 H    0  0  0  0  0  0  0  0  0  0  0  0
    9.2769   16.8111   23.6669 H    0  0  0  0  0  0  0  0  0  0  0  0
    9.7463   15.5046   24.6928 H    0  0  0  0  0  0  0  0  0  0  0  0
   11.7270   16.5789   23.6865 H    0  0  0  0  0  0  0  0  0  0  0  0
   11.6267   14.8811   23.2229 H    0  0  0  0  0  0  0  0  0  0  0  0
   10.8769   17.3172   21.5244 H    0  0  0  0  0  0  0  0  0  0  0  0
   12.1821   16.1891   21.2091 H    0  0  0  0  0  0  0  0  0  0  0  0
    8.3077   16.3828   21.3382 H    0  0  0  0  0  0  0  0  0  0  0  0
    8.1232   14.7437   20.7627 H    0  0  0  0  0  0  0  0  0  0  0  0
   10.5467   14.3356   20.8718 H    0  0  0  0  0  0  0  0  0  0  0  0
   10.9105   15.2257   17.5206 H    0  0  0  0  0  0  0  0  0  0  0  0
   11.1726   14.0598   18.8121 H    0  0  0  0  0  0  0  0  0  0  0  0
 15 16  1  0  0  0  0
 14 15  1  0  0  0  0
 13 14  2  0  0  0  0
  8 13  1  0  0  0  0
  7  8  2  0  0  0  0
  6  7  1  0  0  0  0
  5  6  2  0  0  0  0
  2  5  1  0  0  0  0
  1  2  1  0  0  0  0
  3  2  1  0  0  0  0
  4  2  1  0  0  0  0
 27  6  1  0  0  0  0
 28  7  1  0  0  0  0
  9  8  1  0  0  0  0
 10  9  1  0  0  0  0
 11  9  1  0  0  0  0
 12  9  1  0  0  0  0
 29 13  1  0  0  0  0
 30 15  1  0  0  0  0
 31 15  1  0  0  0  0
 17 16  2  0  0  0  0
 18 16  1  0  0  0  0
 19 18  1  0  0  0  0
 32 19  1  0  0  0  0
 33 19  1  0  0  0  0
 20 19  1  0  0  0  0
 34 20  1  0  0  0  0
 35 20  1  0  0  0  0
 21 20  1  0  0  0  0
 36 21  1  0  0  0  0
 37 21  1  0  0  0  0
 22 18  1  0  0  0  0
 38 22  1  0  0  0  0
 39 22  1  0  0  0  0
 23 21  1  0  0  0  0
 24 23  1  0  0  0  0
 40 23  1  0  0  0  0
 25 24  2  0  0  0  0
 26 24  1  0  0  0  0
 41 26  1  0  0  0  0
 42 26  1  0  0  0  0
 14  5  1  0  0  0  0
 23 22  1  0  0  0  0
M  END
>  <FittedScore>
-32.24

$$$$
