A71EV2A-x5028a_lowest-energy
  FITTED

 40 41     0  0  0  0  0  0  0999 V2000
    9.0473    8.7662   23.6980 C    0  0  0  0  0  0  0  0  0  0  0  0
    9.1400   10.2907   24.6821 S    0  0  0  0  0  0  0  0  0  0  0  0
    7.4991   10.6000   25.3473 C    0  0  0  0  0  0  0  0  0  0  0  0
    6.6526    9.5223   25.6684 C    0  0  0  0  0  0  0  0  0  0  0  0
    5.4135    9.7326   26.2851 C    0  0  0  0  0  0  0  0  0  0  0  0
    4.9759   11.0330   26.5503 C    0  0  0  0  0  0  0  0  0  0  0  0
    5.7776   12.1203   26.1914 C    0  0  0  0  0  0  0  0  0  0  0  0
    7.0411   11.9212   25.5984 C    0  0  0  0  0  0  0  0  0  0  0  0
    7.8946   13.1508   25.2770 C    0  0  0  0  0  0  0  0  0  0  0  0
    8.0815   13.4231   23.7769 C    0  0  0  0  0  0  0  0  0  0  0  0
    7.2131   13.1138   22.9740 O    0  0  0  0  0  0  0  0  0  0  0  0
    9.1969   14.1272   23.3846 N    0  0  0  0  0  0  0  0  0  0  0  0
   10.3700   14.4932   24.2160 C    0  0  0  0  0  0  0  0  0  0  0  0
   11.3914   15.2302   23.3400 C    0  0  0  0  0  0  0  0  0  0  0  0
   10.9122   14.9892   21.8961 C    0  0  0  0  0  0  0  0  0  0  0  0
   11.2861   16.1446   20.9211 C    0  0  0  0  0  0  0  0  0  0  0  0
   10.6448   16.0169   19.5391 C    0  0  0  0  0  0  0  0  0  0  0  0
   11.2499   15.2034   18.6567 N    0  0  0  0  0  0  0  0  0  0  0  0
    9.6336   16.6091   19.2200 O    0  0  0  0  0  0  0  0  0  0  0  0
    9.4004   14.7067   22.0467 C    0  0  0  0  0  0  0  0  0  0  0  0
    8.9627    7.8973   24.3514 H    0  0  0  0  0  0  0  0  0  0  0  0
    9.9606    8.6748   23.1098 H    0  0  0  0  0  0  0  0  0  0  0  0
    8.1911    8.8116   23.0209 H    0  0  0  0  0  0  0  0  0  0  0  0
    6.9563    8.4975   25.4819 H    0  0  0  0  0  0  0  0  0  0  0  0
    4.7909    8.8814   26.5518 H    0  0  0  0  0  0  0  0  0  0  0  0
    4.0079   11.1966   27.0178 H    0  0  0  0  0  0  0  0  0  0  0  0
    5.4036   13.1243   26.3816 H    0  0  0  0  0  0  0  0  0  0  0  0
    8.8394   13.0126   25.8037 H    0  0  0  0  0  0  0  0  0  0  0  0
    7.4644   14.0532   25.7206 H    0  0  0  0  0  0  0  0  0  0  0  0
   10.8291   13.5878   24.6220 H    0  0  0  0  0  0  0  0  0  0  0  0
   10.0654   15.1305   25.0504 H    0  0  0  0  0  0  0  0  0  0  0  0
   12.3991   14.8324   23.4894 H    0  0  0  0  0  0  0  0  0  0  0  0
   11.4057   16.2922   23.6033 H    0  0  0  0  0  0  0  0  0  0  0  0
   11.3860   14.0708   21.5318 H    0  0  0  0  0  0  0  0  0  0  0  0
   12.3786   16.1802   20.8232 H    0  0  0  0  0  0  0  0  0  0  0  0
   10.9945   17.1085   21.3541 H    0  0  0  0  0  0  0  0  0  0  0  0
   12.1235   14.7323   18.8808 H    0  0  0  0  0  0  0  0  0  0  0  0
   10.8959   15.1608   17.7063 H    0  0  0  0  0  0  0  0  0  0  0  0
    9.0762   14.0128   21.2632 H    0  0  0  0  0  0  0  0  0  0  0  0
    8.8008   15.6190   21.9528 H    0  0  0  0  0  0  0  0  0  0  0  0
  9 10  1  0  0  0  0
  8  9  1  0  0  0  0
  7  8  2  0  0  0  0
  6  7  1  0  0  0  0
  5  6  2  0  0  0  0
  4  5  1  0  0  0  0
  3  4  2  0  0  0  0
  2  3  1  0  0  0  0
  1  2  1  0  0  0  0
 21  1  1  0  0  0  0
 22  1  1  0  0  0  0
 23  1  1  0  0  0  0
 24  4  1  0  0  0  0
 25  5  1  0  0  0  0
 26  6  1  0  0  0  0
 27  7  1  0  0  0  0
 28  9  1  0  0  0  0
 29  9  1  0  0  0  0
 11 10  2  0  0  0  0
 12 10  1  0  0  0  0
 13 12  1  0  0  0  0
 14 13  1  0  0  0  0
 30 13  1  0  0  0  0
 31 13  1  0  0  0  0
 15 14  1  0  0  0  0
 32 14  1  0  0  0  0
 33 14  1  0  0  0  0
 16 15  1  0  0  0  0
 20 15  1  0  0  0  0
 34 15  1  0  0  0  0
 17 16  1  0  0  0  0
 35 16  1  0  0  0  0
 36 16  1  0  0  0  0
 18 17  1  0  0  0  0
 19 17  2  0  0  0  0
 37 18  1  0  0  0  0
 38 18  1  0  0  0  0
 39 20  1  0  0  0  0
 40 20  1  0  0  0  0
  8  3  1  0  0  0  0
 20 12  1  0  0  0  0
M  END
>  <FittedScore>
-26.60

$$$$
