A71EV2A-x5539b_best-RMSD
  FITTED

 41 42     0  0  0  0  0  0  0999 V2000
    9.8567   16.8016   19.3246 O    0  0  0  0  0  0  0  0  0  0  0  0
   10.3545   15.7464   19.6820 C    0  0  0  0  0  0  0  0  0  0  0  0
   10.6812   14.8065   18.7775 N    0  0  0  0  0  0  0  0  0  0  0  0
   10.4057   15.2664   21.1340 C    0  0  0  0  0  0  0  0  0  0  0  0
   11.3971   16.0979   21.9914 C    0  0  0  0  0  0  0  0  0  0  0  0
   11.4032   15.5825   23.4590 C    0  0  0  0  0  0  0  0  0  0  0  0
    9.9744   15.4392   24.0601 C    0  0  0  0  0  0  0  0  0  0  0  0
    8.9943   15.2656   21.7817 C    0  0  0  0  0  0  0  0  0  0  0  0
    8.9965   14.7167   23.1772 N    0  0  0  0  0  0  0  0  0  0  0  0
    8.1399   13.7262   23.5937 C    0  0  0  0  0  0  0  0  0  0  0  0
    7.3776   13.1777   22.8173 O    0  0  0  0  0  0  0  0  0  0  0  0
    8.1397   13.4189   24.9237 O    0  0  0  0  0  0  0  0  0  0  0  0
    7.4880   12.3163   25.4534 C    0  0  0  0  0  0  0  0  0  0  0  0
    6.1567   12.4682   25.8686 C    0  0  0  0  0  0  0  0  0  0  0  0
    5.4536   11.3748   26.3929 C    0  0  0  0  0  0  0  0  0  0  0  0
    6.0778   10.1258   26.4818 C    0  0  0  0  0  0  0  0  0  0  0  0
    7.4122    9.9750   26.0809 C    0  0  0  0  0  0  0  0  0  0  0  0
    8.1479   11.0719   25.5886 C    0  0  0  0  0  0  0  0  0  0  0  0
    9.8914   10.9358   25.1911 S    0  0  0  0  0  0  0  0  0  0  0  0
   10.2113    9.2361   24.6080 C    0  0  0  0  0  0  0  0  0  0  0  0
    9.4113    8.8372   23.3666 C    0  0  0  0  0  0  0  0  0  0  0  0
   10.8904   13.8450   19.0699 H    0  0  0  0  0  0  0  0  0  0  0  0
   10.5547   15.0059   17.7921 H    0  0  0  0  0  0  0  0  0  0  0  0
   10.7616   14.2264   21.1556 H    0  0  0  0  0  0  0  0  0  0  0  0
   12.4047   16.0148   21.5756 H    0  0  0  0  0  0  0  0  0  0  0  0
   11.1302   17.1604   21.9732 H    0  0  0  0  0  0  0  0  0  0  0  0
   11.9089   14.6109   23.4972 H    0  0  0  0  0  0  0  0  0  0  0  0
   11.9875   16.2638   24.0819 H    0  0  0  0  0  0  0  0  0  0  0  0
   10.0987   14.9297   25.0166 H    0  0  0  0  0  0  0  0  0  0  0  0
    9.5707   16.4273   24.2925 H    0  0  0  0  0  0  0  0  0  0  0  0
    8.3209   14.7149   21.1171 H    0  0  0  0  0  0  0  0  0  0  0  0
    8.5907   16.2842   21.8121 H    0  0  0  0  0  0  0  0  0  0  0  0
    5.6669   13.4343   25.7792 H    0  0  0  0  0  0  0  0  0  0  0  0
    4.4261   11.4963   26.7130 H    0  0  0  0  0  0  0  0  0  0  0  0
    5.5287    9.2679   26.8599 H    0  0  0  0  0  0  0  0  0  0  0  0
    7.8648    8.9948   26.1795 H    0  0  0  0  0  0  0  0  0  0  0  0
   11.2793    9.1761   24.3864 H    0  0  0  0  0  0  0  0  0  0  0  0
   10.0123    8.5369   25.4220 H    0  0  0  0  0  0  0  0  0  0  0  0
    9.7376    7.8673   22.9947 H    0  0  0  0  0  0  0  0  0  0  0  0
    9.5610    9.5640   22.5651 H    0  0  0  0  0  0  0  0  0  0  0  0
    8.3411    8.7654   23.5730 H    0  0  0  0  0  0  0  0  0  0  0  0
  9 10  1  0  0  0  0
  7  9  1  0  0  0  0
  6  7  1  0  0  0  0
  5  6  1  0  0  0  0
  4  5  1  0  0  0  0
  2  4  1  0  0  0  0
  1  2  2  0  0  0  0
  3  2  1  0  0  0  0
 22  3  1  0  0  0  0
 23  3  1  0  0  0  0
 24  4  1  0  0  0  0
 25  5  1  0  0  0  0
 26  5  1  0  0  0  0
 27  6  1  0  0  0  0
 28  6  1  0  0  0  0
 29  7  1  0  0  0  0
 30  7  1  0  0  0  0
  8  4  1  0  0  0  0
 31  8  1  0  0  0  0
 32  8  1  0  0  0  0
 11 10  2  0  0  0  0
 12 10  1  0  0  0  0
 13 12  1  0  0  0  0
 14 13  1  0  0  0  0
 33 14  1  0  0  0  0
 15 14  2  0  0  0  0
 34 15  1  0  0  0  0
 16 15  1  0  0  0  0
 35 16  1  0  0  0  0
 17 16  2  0  0  0  0
 36 17  1  0  0  0  0
 18 17  1  0  0  0  0
 19 18  1  0  0  0  0
 20 19  1  0  0  0  0
 37 20  1  0  0  0  0
 38 20  1  0  0  0  0
 21 20  1  0  0  0  0
 39 21  1  0  0  0  0
 40 21  1  0  0  0  0
 41 21  1  0  0  0  0
  9  8  1  0  0  0  0
 18 13  2  0  0  0  0
M  END
>  <FittedScore>
-29.64

$$$$
