A71EV2A-x5539b_lowest-energy
  FITTED

 41 42     0  0  0  0  0  0  0999 V2000
    9.8943   16.7876   19.2762 O    0  0  0  0  0  0  0  0  0  0  0  0
   10.3873   15.7288   19.6300 C    0  0  0  0  0  0  0  0  0  0  0  0
   10.6732   14.7717   18.7267 N    0  0  0  0  0  0  0  0  0  0  0  0
   10.4782   15.2872   21.0830 C    0  0  0  0  0  0  0  0  0  0  0  0
   11.3141   16.2753   21.9406 C    0  0  0  0  0  0  0  0  0  0  0  0
   11.3764   15.7695   23.4055 C    0  0  0  0  0  0  0  0  0  0  0  0
    9.9677   15.4458   23.9920 C    0  0  0  0  0  0  0  0  0  0  0  0
    9.0605   15.0975   21.6915 C    0  0  0  0  0  0  0  0  0  0  0  0
    9.0716   14.6192   23.1127 N    0  0  0  0  0  0  0  0  0  0  0  0
    8.1757   13.6888   23.5825 C    0  0  0  0  0  0  0  0  0  0  0  0
    7.3787   13.1519   22.8390 O    0  0  0  0  0  0  0  0  0  0  0  0
    8.1212   13.4904   24.9286 O    0  0  0  0  0  0  0  0  0  0  0  0
    7.2512   12.6039   25.5519 C    0  0  0  0  0  0  0  0  0  0  0  0
    5.9617   13.0497   25.8920 C    0  0  0  0  0  0  0  0  0  0  0  0
    5.0615   12.1858   26.5360 C    0  0  0  0  0  0  0  0  0  0  0  0
    5.4482   10.8714   26.8379 C    0  0  0  0  0  0  0  0  0  0  0  0
    6.7345   10.4221   26.5047 C    0  0  0  0  0  0  0  0  0  0  0  0
    7.6449   11.2814   25.8599 C    0  0  0  0  0  0  0  0  0  0  0  0
    9.2772   10.6881   25.4511 S    0  0  0  0  0  0  0  0  0  0  0  0
    8.9202    9.1742   24.4996 C    0  0  0  0  0  0  0  0  0  0  0  0
   10.1525    8.6544   23.7523 C    0  0  0  0  0  0  0  0  0  0  0  0
   10.6217   14.9823   17.7395 H    0  0  0  0  0  0  0  0  0  0  0  0
   10.8270   13.8099   19.0243 H    0  0  0  0  0  0  0  0  0  0  0  0
   10.9831   14.3141   21.1412 H    0  0  0  0  0  0  0  0  0  0  0  0
   12.3249   16.3596   21.5341 H    0  0  0  0  0  0  0  0  0  0  0  0
   10.8758   17.2793   21.9153 H    0  0  0  0  0  0  0  0  0  0  0  0
   12.0036   14.8718   23.4497 H    0  0  0  0  0  0  0  0  0  0  0  0
   11.8649   16.5250   24.0260 H    0  0  0  0  0  0  0  0  0  0  0  0
   10.1499   14.9381   24.9419 H    0  0  0  0  0  0  0  0  0  0  0  0
    9.4501   16.3799   24.2365 H    0  0  0  0  0  0  0  0  0  0  0  0
    8.5277   14.3999   21.0383 H    0  0  0  0  0  0  0  0  0  0  0  0
    8.4915   16.0333   21.6402 H    0  0  0  0  0  0  0  0  0  0  0  0
    5.6577   14.0677   25.6585 H    0  0  0  0  0  0  0  0  0  0  0  0
    4.0652   12.5388   26.7926 H    0  0  0  0  0  0  0  0  0  0  0  0
    4.7531   10.1982   27.3306 H    0  0  0  0  0  0  0  0  0  0  0  0
    7.0147    9.4023   26.7592 H    0  0  0  0  0  0  0  0  0  0  0  0
    8.5637    8.4057   25.1912 H    0  0  0  0  0  0  0  0  0  0  0  0
    8.1221    9.3867   23.7826 H    0  0  0  0  0  0  0  0  0  0  0  0
   10.4930    9.3963   23.0243 H    0  0  0  0  0  0  0  0  0  0  0  0
    9.9124    7.7342   23.2137 H    0  0  0  0  0  0  0  0  0  0  0  0
   10.9742    8.4434   24.4451 H    0  0  0  0  0  0  0  0  0  0  0  0
  9 10  1  0  0  0  0
  7  9  1  0  0  0  0
  6  7  1  0  0  0  0
  5  6  1  0  0  0  0
  4  5  1  0  0  0  0
  2  4  1  0  0  0  0
  1  2  2  0  0  0  0
  3  2  1  0  0  0  0
 22  3  1  0  0  0  0
 23  3  1  0  0  0  0
 24  4  1  0  0  0  0
 25  5  1  0  0  0  0
 26  5  1  0  0  0  0
 27  6  1  0  0  0  0
 28  6  1  0  0  0  0
 29  7  1  0  0  0  0
 30  7  1  0  0  0  0
  8  4  1  0  0  0  0
 31  8  1  0  0  0  0
 32  8  1  0  0  0  0
 11 10  2  0  0  0  0
 12 10  1  0  0  0  0
 13 12  1  0  0  0  0
 14 13  1  0  0  0  0
 33 14  1  0  0  0  0
 15 14  2  0  0  0  0
 34 15  1  0  0  0  0
 16 15  1  0  0  0  0
 35 16  1  0  0  0  0
 17 16  2  0  0  0  0
 36 17  1  0  0  0  0
 18 17  1  0  0  0  0
 19 18  1  0  0  0  0
 20 19  1  0  0  0  0
 37 20  1  0  0  0  0
 38 20  1  0  0  0  0
 21 20  1  0  0  0  0
 39 21  1  0  0  0  0
 40 21  1  0  0  0  0
 41 21  1  0  0  0  0
  9  8  1  0  0  0  0
 18 13  2  0  0  0  0
M  END
>  <FittedScore>
-29.38

$$$$
