A71EV2A-x5339b_lowest-energy
  FITTED

 43 44     0  0  0  0  0  0  0999 V2000
    9.7374   17.1403   19.2245 O    0  0  0  0  0  0  0  0  0  0  0  0
   10.0593   16.0995   19.7654 C    0  0  0  0  0  0  0  0  0  0  0  0
   10.5471   15.0585   19.0467 N    0  0  0  0  0  0  0  0  0  0  0  0
    9.9337   15.9146   21.2812 C    0  0  0  0  0  0  0  0  0  0  0  0
    9.3862   14.5209   21.7247 C    0  0  0  0  0  0  0  0  0  0  0  0
   11.2800   16.2602   21.9685 C    0  0  0  0  0  0  0  0  0  0  0  0
   11.1444   16.1057   23.4976 C    0  0  0  0  0  0  0  0  0  0  0  0
   10.5895   14.7059   23.9235 C    0  0  0  0  0  0  0  0  0  0  0  0
   11.7074   13.6233   23.8867 C    0  0  0  0  0  0  0  0  0  0  0  0
    9.3287   14.2610   23.2024 N    0  0  0  0  0  0  0  0  0  0  0  0
    8.2994   13.5097   23.7485 C    0  0  0  0  0  0  0  0  0  0  0  0
    7.3715   13.0865   23.0680 O    0  0  0  0  0  0  0  0  0  0  0  0
    8.3559   13.1093   25.2309 C    0  0  0  0  0  0  0  0  0  0  0  0
    7.5613   11.8433   25.5686 C    0  0  0  0  0  0  0  0  0  0  0  0
    7.9609   10.5547   25.1258 C    0  0  0  0  0  0  0  0  0  0  0  0
    9.4430   10.3558   24.1207 S    0  0  0  0  0  0  0  0  0  0  0  0
    9.4411    8.7048   23.3639 C    0  0  0  0  0  0  0  0  0  0  0  0
    6.3967   11.9919   26.3435 C    0  0  0  0  0  0  0  0  0  0  0  0
    5.6326   10.8747   26.6971 C    0  0  0  0  0  0  0  0  0  0  0  0
    4.0719   11.1119   27.7609 BR   0  0  0  0  0  0  0  0  0  0  0  0
    6.0172    9.5985   26.2688 C    0  0  0  0  0  0  0  0  0  0  0  0
    7.1740    9.4425   25.4910 C    0  0  0  0  0  0  0  0  0  0  0  0
   10.6961   14.1503   19.4855 H    0  0  0  0  0  0  0  0  0  0  0  0
   10.6856   15.1476   18.0460 H    0  0  0  0  0  0  0  0  0  0  0  0
    9.1968   16.6490   21.6280 H    0  0  0  0  0  0  0  0  0  0  0  0
    8.4005   14.4220   21.2577 H    0  0  0  0  0  0  0  0  0  0  0  0
    9.9856   13.7117   21.2995 H    0  0  0  0  0  0  0  0  0  0  0  0
   11.5635   17.2911   21.7280 H    0  0  0  0  0  0  0  0  0  0  0  0
   12.0779   15.6148   21.5878 H    0  0  0  0  0  0  0  0  0  0  0  0
   10.4768   16.8858   23.8705 H    0  0  0  0  0  0  0  0  0  0  0  0
   12.1166   16.3026   23.9583 H    0  0  0  0  0  0  0  0  0  0  0  0
   10.3575   14.8647   24.9764 H    0  0  0  0  0  0  0  0  0  0  0  0
   11.9533   13.3293   22.8639 H    0  0  0  0  0  0  0  0  0  0  0  0
   11.4099   12.7173   24.4196 H    0  0  0  0  0  0  0  0  0  0  0  0
   12.6261   13.9767   24.3635 H    0  0  0  0  0  0  0  0  0  0  0  0
    9.3682   12.9176   25.5821 H    0  0  0  0  0  0  0  0  0  0  0  0
    8.0094   13.9618   25.8202 H    0  0  0  0  0  0  0  0  0  0  0  0
    9.5381    7.9379   24.1330 H    0  0  0  0  0  0  0  0  0  0  0  0
   10.3020    8.6222   22.6971 H    0  0  0  0  0  0  0  0  0  0  0  0
    8.5317    8.5471   22.7816 H    0  0  0  0  0  0  0  0  0  0  0  0
    6.0878   12.9821   26.6695 H    0  0  0  0  0  0  0  0  0  0  0  0
    5.4357    8.7188   26.5319 H    0  0  0  0  0  0  0  0  0  0  0  0
    7.4511    8.4414   25.1897 H    0  0  0  0  0  0  0  0  0  0  0  0
 10 11  1  0  0  0  0
  5 10  1  0  0  0  0
  4  5  1  0  0  0  0
  2  4  1  0  0  0  0
  1  2  2  0  0  0  0
  3  2  1  0  0  0  0
 23  3  1  0  0  0  0
 24  3  1  0  0  0  0
 25  4  1  0  0  0  0
 26  5  1  0  0  0  0
 27  5  1  0  0  0  0
  6  4  1  0  0  0  0
 28  6  1  0  0  0  0
 29  6  1  0  0  0  0
  7  6  1  0  0  0  0
 30  7  1  0  0  0  0
 31  7  1  0  0  0  0
  8  7  1  0  0  0  0
  9  8  1  0  0  0  0
 32  8  1  0  0  0  0
 33  9  1  0  0  0  0
 34  9  1  0  0  0  0
 35  9  1  0  0  0  0
 12 11  2  0  0  0  0
 13 11  1  0  0  0  0
 36 13  1  0  0  0  0
 37 13  1  0  0  0  0
 14 13  1  0  0  0  0
 15 14  1  0  0  0  0
 22 15  2  0  0  0  0
 16 15  1  0  0  0  0
 17 16  1  0  0  0  0
 38 17  1  0  0  0  0
 39 17  1  0  0  0  0
 40 17  1  0  0  0  0
 18 14  2  0  0  0  0
 41 18  1  0  0  0  0
 19 18  1  0  0  0  0
 20 19  1  0  0  0  0
 21 19  2  0  0  0  0
 42 21  1  0  0  0  0
 43 22  1  0  0  0  0
 10  8  1  0  0  0  0
 22 21  1  0  0  0  0
M  END
>  <FittedScore>
-33.66

$$$$
