A71EV2A-x3286a_best-RMSD
  FITTED

 37 39     0  0  0  0  0  0  0999 V2000
    9.3681   14.3757   25.2802 O    0  0  0  0  0  0  0  0  0  0  0  0
    9.6944   13.5124   24.4856 C    0  0  0  0  0  0  0  0  0  0  0  0
    9.1028   12.1195   24.4500 C    0  0  0  0  0  0  0  0  0  0  0  0
    8.0689   11.6171   25.2347 C    0  0  0  0  0  0  0  0  0  0  0  0
    7.2327   12.2176   26.1922 C    0  0  0  0  0  0  0  0  0  0  0  0
    6.2745   11.4233   26.8516 C    0  0  0  0  0  0  0  0  0  0  0  0
    6.1609   10.0512   26.5481 C    0  0  0  0  0  0  0  0  0  0  0  0
    6.9908    9.4649   25.5792 C    0  0  0  0  0  0  0  0  0  0  0  0
    7.9439   10.2744   24.9415 C    0  0  0  0  0  0  0  0  0  0  0  0
    8.8727    9.9663   23.9967 N    0  0  0  0  0  0  0  0  0  0  0  0
    9.1543    8.6366   23.4372 C    0  0  0  0  0  0  0  0  0  0  0  0
    9.6167   11.0259   23.5709 N    0  0  0  0  0  0  0  0  0  0  0  0
   10.7009   13.6617   23.5863 N    0  0  0  0  0  0  0  0  0  0  0  0
   11.6433   14.7898   23.4605 C    0  0  0  0  0  0  0  0  0  0  0  0
   11.8695   15.1986   21.9843 C    0  0  0  0  0  0  0  0  0  0  0  0
   10.7175   15.8991   21.2763 C    0  0  0  0  0  0  0  0  0  0  0  0
   10.4574   15.9015   19.9119 C    0  0  0  0  0  0  0  0  0  0  0  0
   11.1866   15.1188   18.8505 C    0  0  0  0  0  0  0  0  0  0  0  0
    9.8220   16.8429   21.9466 N    0  0  0  0  0  0  0  0  0  0  0  0
    9.0600   17.3585   20.8092 C    0  0  0  0  0  0  0  0  0  0  0  0
    9.4424   16.7790   19.6260 O    0  0  0  0  0  0  0  0  0  0  0  0
    7.3084   13.2722   26.4336 H    0  0  0  0  0  0  0  0  0  0  0  0
    5.6334   11.8654   27.6109 H    0  0  0  0  0  0  0  0  0  0  0  0
    5.4232    9.4413   27.0629 H    0  0  0  0  0  0  0  0  0  0  0  0
    6.8905    8.4095   25.3306 H    0  0  0  0  0  0  0  0  0  0  0  0
   10.0021    8.6372   22.7449 H    0  0  0  0  0  0  0  0  0  0  0  0
    8.2949    8.2462   22.8861 H    0  0  0  0  0  0  0  0  0  0  0  0
    9.3999    7.9138   24.2232 H    0  0  0  0  0  0  0  0  0  0  0  0
   10.8976   12.8638   22.9940 H    0  0  0  0  0  0  0  0  0  0  0  0
   11.3234   15.6594   24.0426 H    0  0  0  0  0  0  0  0  0  0  0  0
   12.6050   14.4701   23.8753 H    0  0  0  0  0  0  0  0  0  0  0  0
   12.7209   15.8816   21.9415 H    0  0  0  0  0  0  0  0  0  0  0  0
   12.1604   14.3073   21.4187 H    0  0  0  0  0  0  0  0  0  0  0  0
   11.1493   14.0466   19.0784 H    0  0  0  0  0  0  0  0  0  0  0  0
   12.2352   15.4198   18.7875 H    0  0  0  0  0  0  0  0  0  0  0  0
   10.7241   15.2724   17.8686 H    0  0  0  0  0  0  0  0  0  0  0  0
    8.2600   18.0870   20.9244 H    0  0  0  0  0  0  0  0  0  0  0  0
  2  1  2  0  0  0  0
  3  2  1  0  0  0  0
 12  3  2  0  0  0  0
  4  3  1  0  0  0  0
  5  4  1  0  0  0  0
 22  5  1  0  0  0  0
  6  5  2  0  0  0  0
 23  6  1  0  0  0  0
  7  6  1  0  0  0  0
 24  7  1  0  0  0  0
  8  7  2  0  0  0  0
 25  8  1  0  0  0  0
  9  8  1  0  0  0  0
 10  9  1  0  0  0  0
 11 10  1  0  0  0  0
 26 11  1  0  0  0  0
 27 11  1  0  0  0  0
 28 11  1  0  0  0  0
 13  2  1  0  0  0  0
 29 13  1  0  0  0  0
 14 13  1  0  0  0  0
 30 14  1  0  0  0  0
 31 14  1  0  0  0  0
 15 14  1  0  0  0  0
 32 15  1  0  0  0  0
 33 15  1  0  0  0  0
 16 15  1  0  0  0  0
 17 16  2  0  0  0  0
 21 17  1  0  0  0  0
 18 17  1  0  0  0  0
 34 18  1  0  0  0  0
 35 18  1  0  0  0  0
 36 18  1  0  0  0  0
 19 16  1  0  0  0  0
 20 19  2  0  0  0  0
 37 20  1  0  0  0  0
  9  4  2  0  0  0  0
 12 10  1  0  0  0  0
 21 20  1  0  0  0  0
M  END
>  <FittedScore>
-32.23

$$$$
