A71EV2A-x7170a_best-RMSD
  FITTED

 66 68     0  0  0  0  0  0  0999 V2000
    9.6825    8.8167   23.2460 C    0  0  0  0  0  0  0  0  0  0  0  0
    9.5963   10.5345   23.8328 S    0  0  0  0  0  0  0  0  0  0  0  0
    8.2020   10.6505   24.9401 C    0  0  0  0  0  0  0  0  0  0  0  0
    7.5477    9.4966   25.2458 N    0  0  0  0  0  0  0  0  0  0  0  0
    6.4700    9.5815   26.0632 C    0  0  0  0  0  0  0  0  0  0  0  0
    5.9677   10.7426   26.5522 N    0  0  0  0  0  0  0  0  0  0  0  0
    6.5767   11.9152   26.2365 C    0  0  0  0  0  0  0  0  0  0  0  0
    5.9428   13.0789   26.6613 N    0  0  0  0  0  0  0  0  0  0  0  0
    5.5278   13.3060   28.0719 C    0  0  0  0  0  0  0  0  0  0  0  0
    3.9668   13.3419   28.1961 C    0  0  0  0  0  0  0  0  0  0  0  0
    3.2646   14.3206   27.1765 C    0  0  0  0  0  0  0  0  0  0  0  0
    3.5792   15.7215   27.5514 C    0  0  0  0  0  0  0  0  0  0  0  0
    3.8780   16.7925   27.7853 N    0  0  0  0  0  0  0  0  0  0  0  0
    1.7056   14.1057   27.2218 C    0  0  0  0  0  0  0  0  0  0  0  0
    0.8547   14.9434   26.1859 C    0  0  0  0  0  0  0  0  0  0  0  0
    0.2558   14.0363   25.0759 C    0  0  0  0  0  0  0  0  0  0  0  0
   -0.2477   15.7914   26.8738 C    0  0  0  0  0  0  0  0  0  0  0  0
    3.8288   14.0306   25.7406 C    0  0  0  0  0  0  0  0  0  0  0  0
    5.3707   14.0255   25.6734 C    0  0  0  0  0  0  0  0  0  0  0  0
    7.7658   11.9060   25.4504 C    0  0  0  0  0  0  0  0  0  0  0  0
    8.5190   13.2002   25.1091 C    0  0  0  0  0  0  0  0  0  0  0  0
    8.2232   13.7282   23.6945 C    0  0  0  0  0  0  0  0  0  0  0  0
    7.4384   13.1338   22.9661 O    0  0  0  0  0  0  0  0  0  0  0  0
    8.9340   14.8119   23.2431 N    0  0  0  0  0  0  0  0  0  0  0  0
    9.9074   15.6374   24.0319 C    0  0  0  0  0  0  0  0  0  0  0  0
   11.3523   15.5867   23.4681 C    0  0  0  0  0  0  0  0  0  0  0  0
   11.4044   15.9333   21.9599 C    0  0  0  0  0  0  0  0  0  0  0  0
   10.3451   15.1180   21.1624 C    0  0  0  0  0  0  0  0  0  0  0  0
   10.3486   15.5290   19.6964 C    0  0  0  0  0  0  0  0  0  0  0  0
   10.8675   14.6501   18.8231 N    0  0  0  0  0  0  0  0  0  0  0  0
    9.8375   16.5557   19.2972 O    0  0  0  0  0  0  0  0  0  0  0  0
    8.9297   15.2529   21.8122 C    0  0  0  0  0  0  0  0  0  0  0  0
    9.9528    8.1544   24.0684 H    0  0  0  0  0  0  0  0  0  0  0  0
   10.4463    8.7526   22.4665 H    0  0  0  0  0  0  0  0  0  0  0  0
    8.7261    8.5103   22.8157 H    0  0  0  0  0  0  0  0  0  0  0  0
    5.9712    8.6560   26.3388 H    0  0  0  0  0  0  0  0  0  0  0  0
    5.9362   14.2531   28.4364 H    0  0  0  0  0  0  0  0  0  0  0  0
    5.9239   12.5398   28.7450 H    0  0  0  0  0  0  0  0  0  0  0  0
    3.7072   13.6190   29.2238 H    0  0  0  0  0  0  0  0  0  0  0  0
    3.5898   12.3226   28.0571 H    0  0  0  0  0  0  0  0  0  0  0  0
    1.3666   14.3195   28.2403 H    0  0  0  0  0  0  0  0  0  0  0  0
    1.4863   13.0399   27.0979 H    0  0  0  0  0  0  0  0  0  0  0  0
    1.4802   15.6813   25.6805 H    0  0  0  0  0  0  0  0  0  0  0  0
   -0.2454   14.6272   24.3047 H    0  0  0  0  0  0  0  0  0  0  0  0
   -0.4782   13.3423   25.4941 H    0  0  0  0  0  0  0  0  0  0  0  0
    1.0317   13.4446   24.5821 H    0  0  0  0  0  0  0  0  0  0  0  0
    0.2070   16.4981   27.5734 H    0  0  0  0  0  0  0  0  0  0  0  0
   -0.9537   15.1663   27.4251 H    0  0  0  0  0  0  0  0  0  0  0  0
   -0.8085   16.3761   26.1390 H    0  0  0  0  0  0  0  0  0  0  0  0
    3.4830   14.7724   25.0155 H    0  0  0  0  0  0  0  0  0  0  0  0
    3.4669   13.0595   25.3872 H    0  0  0  0  0  0  0  0  0  0  0  0
    5.7765   15.0351   25.8008 H    0  0  0  0  0  0  0  0  0  0  0  0
    5.6025   13.7399   24.6510 H    0  0  0  0  0  0  0  0  0  0  0  0
    9.5919   13.0236   25.2344 H    0  0  0  0  0  0  0  0  0  0  0  0
    8.2892   13.9795   25.8430 H    0  0  0  0  0  0  0  0  0  0  0  0
    9.9688   15.3746   25.0855 H    0  0  0  0  0  0  0  0  0  0  0  0
    9.5588   16.6774   24.0414 H    0  0  0  0  0  0  0  0  0  0  0  0
   11.7812   14.5918   23.6312 H    0  0  0  0  0  0  0  0  0  0  0  0
   11.9765   16.2961   24.0195 H    0  0  0  0  0  0  0  0  0  0  0  0
   12.4021   15.7164   21.5723 H    0  0  0  0  0  0  0  0  0  0  0  0
   11.2357   17.0064   21.8274 H    0  0  0  0  0  0  0  0  0  0  0  0
   10.6289   14.0609   21.2415 H    0  0  0  0  0  0  0  0  0  0  0  0
   11.1279   13.7183   19.1342 H    0  0  0  0  0  0  0  0  0  0  0  0
   10.8374   14.8537   17.8319 H    0  0  0  0  0  0  0  0  0  0  0  0
    8.2180   14.7002   21.1954 H    0  0  0  0  0  0  0  0  0  0  0  0
    8.5810   16.2904   21.7674 H    0  0  0  0  0  0  0  0  0  0  0  0
 18 19  1  0  0  0  0
 11 18  1  0  0  0  0
 10 11  1  0  0  0  0
  9 10  1  0  0  0  0
  8  9  1  0  0  0  0
  7  8  1  0  0  0  0
  6  7  1  0  0  0  0
  5  6  2  0  0  0  0
  4  5  1  0  0  0  0
  3  4  2  0  0  0  0
  2  3  1  0  0  0  0
  1  2  1  0  0  0  0
 33  1  1  0  0  0  0
 34  1  1  0  0  0  0
 35  1  1  0  0  0  0
 36  5  1  0  0  0  0
 20  7  2  0  0  0  0
 37  9  1  0  0  0  0
 38  9  1  0  0  0  0
 39 10  1  0  0  0  0
 40 10  1  0  0  0  0
 12 11  1  0  0  0  0
 14 11  1  0  0  0  0
 13 12  3  0  0  0  0
 15 14  1  0  0  0  0
 41 14  1  0  0  0  0
 42 14  1  0  0  0  0
 16 15  1  0  0  0  0
 17 15  1  0  0  0  0
 43 15  1  0  0  0  0
 44 16  1  0  0  0  0
 45 16  1  0  0  0  0
 46 16  1  0  0  0  0
 47 17  1  0  0  0  0
 48 17  1  0  0  0  0
 49 17  1  0  0  0  0
 50 18  1  0  0  0  0
 51 18  1  0  0  0  0
 52 19  1  0  0  0  0
 53 19  1  0  0  0  0
 21 20  1  0  0  0  0
 22 21  1  0  0  0  0
 54 21  1  0  0  0  0
 55 21  1  0  0  0  0
 23 22  2  0  0  0  0
 24 22  1  0  0  0  0
 25 24  1  0  0  0  0
 26 25  1  0  0  0  0
 56 25  1  0  0  0  0
 57 25  1  0  0  0  0
 27 26  1  0  0  0  0
 58 26  1  0  0  0  0
 59 26  1  0  0  0  0
 28 27  1  0  0  0  0
 60 27  1  0  0  0  0
 61 27  1  0  0  0  0
 29 28  1  0  0  0  0
 32 28  1  0  0  0  0
 62 28  1  0  0  0  0
 30 29  1  0  0  0  0
 31 29  2  0  0  0  0
 63 30  1  0  0  0  0
 64 30  1  0  0  0  0
 65 32  1  0  0  0  0
 66 32  1  0  0  0  0
 19  8  1  0  0  0  0
 20  3  1  0  0  0  0
 32 24  1  0  0  0  0
M  END
>  <FittedScore>
-35.49

$$$$
