A71EV2A-x4829a_lowest-energy
  FITTED

 38 39     0  0  0  0  0  0  0999 V2000
    9.8178   16.8103   19.3224 O    0  0  0  0  0  0  0  0  0  0  0  0
   10.2988   15.7562   19.6927 C    0  0  0  0  0  0  0  0  0  0  0  0
   10.8409   14.8968   18.8079 N    0  0  0  0  0  0  0  0  0  0  0  0
   10.2055   15.2611   21.1323 C    0  0  0  0  0  0  0  0  0  0  0  0
   11.1313   16.0903   22.0700 C    0  0  0  0  0  0  0  0  0  0  0  0
   10.9762   15.6348   23.5436 C    0  0  0  0  0  0  0  0  0  0  0  0
    9.4874   15.5652   23.9804 C    0  0  0  0  0  0  0  0  0  0  0  0
    8.7307   15.2481   21.6452 C    0  0  0  0  0  0  0  0  0  0  0  0
    8.6168   14.7590   23.0552 N    0  0  0  0  0  0  0  0  0  0  0  0
    7.8088   13.7140   23.4282 C    0  0  0  0  0  0  0  0  0  0  0  0
    7.1044   13.1316   22.6186 O    0  0  0  0  0  0  0  0  0  0  0  0
    7.8500   13.3407   24.7422 O    0  0  0  0  0  0  0  0  0  0  0  0
    7.2321   12.1890   25.2080 C    0  0  0  0  0  0  0  0  0  0  0  0
    7.6590   10.9011   24.8038 C    0  0  0  0  0  0  0  0  0  0  0  0
    8.7774   10.7987   23.9758 O    0  0  0  0  0  0  0  0  0  0  0  0
    9.2416    9.5845   23.3438 C    0  0  0  0  0  0  0  0  0  0  0  0
    6.1287   12.3392   26.0629 C    0  0  0  0  0  0  0  0  0  0  0  0
    5.4237   11.2123   26.5076 C    0  0  0  0  0  0  0  0  0  0  0  0
    4.0362   11.4124   27.5258 CL   0  0  0  0  0  0  0  0  0  0  0  0
    5.8262    9.9326   26.1010 C    0  0  0  0  0  0  0  0  0  0  0  0
    6.9249    9.7769   25.2451 C    0  0  0  0  0  0  0  0  0  0  0  0
   10.8716   15.1339   17.8207 H    0  0  0  0  0  0  0  0  0  0  0  0
   11.0660   13.9488   19.1078 H    0  0  0  0  0  0  0  0  0  0  0  0
   10.5558   14.2227   21.1812 H    0  0  0  0  0  0  0  0  0  0  0  0
   12.1730   15.9701   21.7611 H    0  0  0  0  0  0  0  0  0  0  0  0
   10.8980   17.1565   21.9948 H    0  0  0  0  0  0  0  0  0  0  0  0
   11.4423   14.6549   23.6777 H    0  0  0  0  0  0  0  0  0  0  0  0
   11.5077   16.3315   24.1945 H    0  0  0  0  0  0  0  0  0  0  0  0
    9.4810   15.1905   25.0026 H    0  0  0  0  0  0  0  0  0  0  0  0
    9.0819   16.5800   24.0422 H    0  0  0  0  0  0  0  0  0  0  0  0
    8.1470   14.6423   20.9461 H    0  0  0  0  0  0  0  0  0  0  0  0
    8.2895   16.2477   21.5847 H    0  0  0  0  0  0  0  0  0  0  0  0
    9.6088    8.8815   24.0948 H    0  0  0  0  0  0  0  0  0  0  0  0
   10.0726    9.8361   22.6816 H    0  0  0  0  0  0  0  0  0  0  0  0
    8.4466    9.1241   22.7514 H    0  0  0  0  0  0  0  0  0  0  0  0
    5.8112   13.3343   26.3644 H    0  0  0  0  0  0  0  0  0  0  0  0
    5.2829    9.0515   26.4380 H    0  0  0  0  0  0  0  0  0  0  0  0
    7.2006    8.7712   24.9424 H    0  0  0  0  0  0  0  0  0  0  0  0
  9 10  1  0  0  0  0
  7  9  1  0  0  0  0
  6  7  1  0  0  0  0
  5  6  1  0  0  0  0
  4  5  1  0  0  0  0
  2  4  1  0  0  0  0
  1  2  2  0  0  0  0
  3  2  1  0  0  0  0
 22  3  1  0  0  0  0
 23  3  1  0  0  0  0
 24  4  1  0  0  0  0
 25  5  1  0  0  0  0
 26  5  1  0  0  0  0
 27  6  1  0  0  0  0
 28  6  1  0  0  0  0
 29  7  1  0  0  0  0
 30  7  1  0  0  0  0
  8  4  1  0  0  0  0
 31  8  1  0  0  0  0
 32  8  1  0  0  0  0
 11 10  2  0  0  0  0
 12 10  1  0  0  0  0
 13 12  1  0  0  0  0
 14 13  1  0  0  0  0
 21 14  2  0  0  0  0
 15 14  1  0  0  0  0
 16 15  1  0  0  0  0
 33 16  1  0  0  0  0
 34 16  1  0  0  0  0
 35 16  1  0  0  0  0
 17 13  2  0  0  0  0
 36 17  1  0  0  0  0
 18 17  1  0  0  0  0
 19 18  1  0  0  0  0
 20 18  2  0  0  0  0
 37 20  1  0  0  0  0
 38 21  1  0  0  0  0
  9  8  1  0  0  0  0
 21 20  1  0  0  0  0
M  END
>  <FittedScore>
-34.11

$$$$
