A71EV2A-x7427a_lowest-energy
  FITTED

 60 62     0  0  0  0  0  0  0999 V2000
    9.7781    8.5343   23.5179 C    0  0  0  0  0  0  0  0  0  0  0  0
    9.4799   10.3131   23.7248 S    0  0  0  0  0  0  0  0  0  0  0  0
    8.1120   10.4940   24.8627 C    0  0  0  0  0  0  0  0  0  0  0  0
    7.4057    9.3754   25.1841 N    0  0  0  0  0  0  0  0  0  0  0  0
    6.3398    9.5087   26.0134 C    0  0  0  0  0  0  0  0  0  0  0  0
    5.9095   10.6844   26.5287 N    0  0  0  0  0  0  0  0  0  0  0  0
    6.5967   11.8215   26.2192 C    0  0  0  0  0  0  0  0  0  0  0  0
    6.0933   13.0051   26.7282 N    0  0  0  0  0  0  0  0  0  0  0  0
    5.6571   13.1767   28.1275 C    0  0  0  0  0  0  0  0  0  0  0  0
    4.6104   14.3056   28.0850 C    0  0  0  0  0  0  0  0  0  0  0  0
    4.2211   14.4653   26.5940 C    0  0  0  0  0  0  0  0  0  0  0  0
    3.0154   13.6020   26.1377 C    0  0  0  0  0  0  0  0  0  0  0  0
    2.8761   12.4816   26.5981 O    0  0  0  0  0  0  0  0  0  0  0  0
    2.2038   14.0502   25.1106 N    0  0  0  0  0  0  0  0  0  0  0  0
    1.1115   13.2415   24.4954 C    0  0  0  0  0  0  0  0  0  0  0  0
    2.3224   15.3818   24.4551 C    0  0  0  0  0  0  0  0  0  0  0  0
    5.4958   14.0243   25.8504 C    0  0  0  0  0  0  0  0  0  0  0  0
    7.7490   11.7662   25.3821 C    0  0  0  0  0  0  0  0  0  0  0  0
    8.5569   13.0249   25.0111 C    0  0  0  0  0  0  0  0  0  0  0  0
    8.2040   13.6091   23.6354 C    0  0  0  0  0  0  0  0  0  0  0  0
    7.3895   13.0429   22.9208 O    0  0  0  0  0  0  0  0  0  0  0  0
    8.9002   14.7117   23.1812 N    0  0  0  0  0  0  0  0  0  0  0  0
    9.9122   15.5161   23.9513 C    0  0  0  0  0  0  0  0  0  0  0  0
   11.3433   15.3706   23.3694 C    0  0  0  0  0  0  0  0  0  0  0  0
   11.3907   15.7643   21.8684 C    0  0  0  0  0  0  0  0  0  0  0  0
   10.2598   15.0492   21.0699 C    0  0  0  0  0  0  0  0  0  0  0  0
   10.2514   15.5263   19.6212 C    0  0  0  0  0  0  0  0  0  0  0  0
   10.7970   14.6722   18.7360 N    0  0  0  0  0  0  0  0  0  0  0  0
    9.7437   16.5709   19.2545 O    0  0  0  0  0  0  0  0  0  0  0  0
    8.8635   15.1869   21.7590 C    0  0  0  0  0  0  0  0  0  0  0  0
   10.6533    8.3896   22.8837 H    0  0  0  0  0  0  0  0  0  0  0  0
    8.9171    8.0509   23.0531 H    0  0  0  0  0  0  0  0  0  0  0  0
    9.9728    8.0838   24.4945 H    0  0  0  0  0  0  0  0  0  0  0  0
    5.7847    8.6100   26.2764 H    0  0  0  0  0  0  0  0  0  0  0  0
    6.4956   13.4534   28.7677 H    0  0  0  0  0  0  0  0  0  0  0  0
    5.1985   12.2828   28.5637 H    0  0  0  0  0  0  0  0  0  0  0  0
    5.0636   15.2317   28.4492 H    0  0  0  0  0  0  0  0  0  0  0  0
    3.7484   14.0912   28.7235 H    0  0  0  0  0  0  0  0  0  0  0  0
    4.0503   15.5303   26.4400 H    0  0  0  0  0  0  0  0  0  0  0  0
    1.0764   12.2069   24.8395 H    0  0  0  0  0  0  0  0  0  0  0  0
    1.2299   13.1932   23.4083 H    0  0  0  0  0  0  0  0  0  0  0  0
    0.1377   13.6883   24.7221 H    0  0  0  0  0  0  0  0  0  0  0  0
    2.1666   16.1769   25.1900 H    0  0  0  0  0  0  0  0  0  0  0  0
    1.5977   15.5542   23.6537 H    0  0  0  0  0  0  0  0  0  0  0  0
    3.3153   15.4984   24.0110 H    0  0  0  0  0  0  0  0  0  0  0  0
    6.1618   14.8808   25.7173 H    0  0  0  0  0  0  0  0  0  0  0  0
    5.2623   13.6444   24.8477 H    0  0  0  0  0  0  0  0  0  0  0  0
    9.6262   12.8098   25.0487 H    0  0  0  0  0  0  0  0  0  0  0  0
    8.4258   13.7881   25.7783 H    0  0  0  0  0  0  0  0  0  0  0  0
    9.9568   15.2770   25.0108 H    0  0  0  0  0  0  0  0  0  0  0  0
    9.6258   16.5717   23.9285 H    0  0  0  0  0  0  0  0  0  0  0  0
   11.6913   14.3373   23.4877 H    0  0  0  0  0  0  0  0  0  0  0  0
   12.0388   15.9999   23.9296 H    0  0  0  0  0  0  0  0  0  0  0  0
   12.3621   15.4805   21.4545 H    0  0  0  0  0  0  0  0  0  0  0  0
   11.3033   16.8523   21.7655 H    0  0  0  0  0  0  0  0  0  0  0  0
   10.4945   13.9776   21.0870 H    0  0  0  0  0  0  0  0  0  0  0  0
   10.8022   14.9019   17.7513 H    0  0  0  0  0  0  0  0  0  0  0  0
   11.0268   13.7208   19.0308 H    0  0  0  0  0  0  0  0  0  0  0  0
    8.1287   14.6491   21.1491 H    0  0  0  0  0  0  0  0  0  0  0  0
    8.5318   16.2339   21.7382 H    0  0  0  0  0  0  0  0  0  0  0  0
 18 19  1  0  0  0  0
  7 18  2  0  0  0  0
  6  7  1  0  0  0  0
  5  6  2  0  0  0  0
  4  5  1  0  0  0  0
  3  4  2  0  0  0  0
  2  3  1  0  0  0  0
  1  2  1  0  0  0  0
 31  1  1  0  0  0  0
 32  1  1  0  0  0  0
 33  1  1  0  0  0  0
 34  5  1  0  0  0  0
  8  7  1  0  0  0  0
  9  8  1  0  0  0  0
 10  9  1  0  0  0  0
 35  9  1  0  0  0  0
 36  9  1  0  0  0  0
 11 10  1  0  0  0  0
 37 10  1  0  0  0  0
 38 10  1  0  0  0  0
 12 11  1  0  0  0  0
 17 11  1  0  0  0  0
 39 11  1  0  0  0  0
 13 12  2  0  0  0  0
 14 12  1  0  0  0  0
 15 14  1  0  0  0  0
 16 14  1  0  0  0  0
 40 15  1  0  0  0  0
 41 15  1  0  0  0  0
 42 15  1  0  0  0  0
 43 16  1  0  0  0  0
 44 16  1  0  0  0  0
 45 16  1  0  0  0  0
 46 17  1  0  0  0  0
 47 17  1  0  0  0  0
 20 19  1  0  0  0  0
 48 19  1  0  0  0  0
 49 19  1  0  0  0  0
 21 20  2  0  0  0  0
 22 20  1  0  0  0  0
 23 22  1  0  0  0  0
 24 23  1  0  0  0  0
 50 23  1  0  0  0  0
 51 23  1  0  0  0  0
 25 24  1  0  0  0  0
 52 24  1  0  0  0  0
 53 24  1  0  0  0  0
 26 25  1  0  0  0  0
 54 25  1  0  0  0  0
 55 25  1  0  0  0  0
 27 26  1  0  0  0  0
 30 26  1  0  0  0  0
 56 26  1  0  0  0  0
 28 27  1  0  0  0  0
 29 27  2  0  0  0  0
 57 28  1  0  0  0  0
 58 28  1  0  0  0  0
 59 30  1  0  0  0  0
 60 30  1  0  0  0  0
 17  8  1  0  0  0  0
 18  3  1  0  0  0  0
 30 22  1  0  0  0  0
M  END
>  <FittedScore>
-35.64

$$$$
