A71EV2A-x7427a_best-RMSD
  FITTED

 60 62     0  0  0  0  0  0  0999 V2000
    9.7487    8.7323   23.4753 C    0  0  0  0  0  0  0  0  0  0  0  0
    9.5230   10.4970   23.8965 S    0  0  0  0  0  0  0  0  0  0  0  0
    8.0565   10.5796   24.9149 C    0  0  0  0  0  0  0  0  0  0  0  0
    7.4408    9.4020   25.2108 N    0  0  0  0  0  0  0  0  0  0  0  0
    6.3205    9.4387   25.9661 C    0  0  0  0  0  0  0  0  0  0  0  0
    5.7486   10.5738   26.4354 N    0  0  0  0  0  0  0  0  0  0  0  0
    6.3399   11.7682   26.1626 C    0  0  0  0  0  0  0  0  0  0  0  0
    5.6907   12.8889   26.6422 N    0  0  0  0  0  0  0  0  0  0  0  0
    4.7900   13.6661   25.7828 C    0  0  0  0  0  0  0  0  0  0  0  0
    3.6934   14.1837   26.7249 C    0  0  0  0  0  0  0  0  0  0  0  0
    4.3585   14.2603   28.1211 C    0  0  0  0  0  0  0  0  0  0  0  0
    4.9680   15.6712   28.3470 C    0  0  0  0  0  0  0  0  0  0  0  0
    6.1245   15.8855   28.0210 O    0  0  0  0  0  0  0  0  0  0  0  0
    4.1764   16.6983   28.8307 N    0  0  0  0  0  0  0  0  0  0  0  0
    2.7253   16.5801   29.1750 C    0  0  0  0  0  0  0  0  0  0  0  0
    4.6978   18.0879   29.0423 C    0  0  0  0  0  0  0  0  0  0  0  0
    5.3954   13.1001   28.0744 C    0  0  0  0  0  0  0  0  0  0  0  0
    7.5387   11.8191   25.3901 C    0  0  0  0  0  0  0  0  0  0  0  0
    8.2488   13.1483   25.0716 C    0  0  0  0  0  0  0  0  0  0  0  0
    8.0380   13.6758   23.6458 C    0  0  0  0  0  0  0  0  0  0  0  0
    7.2747   13.0890   22.8927 O    0  0  0  0  0  0  0  0  0  0  0  0
    8.7831   14.7506   23.2121 N    0  0  0  0  0  0  0  0  0  0  0  0
    9.6732   15.6154   24.0624 C    0  0  0  0  0  0  0  0  0  0  0  0
   11.1552   15.5423   23.6121 C    0  0  0  0  0  0  0  0  0  0  0  0
   11.3057   15.9289   22.1144 C    0  0  0  0  0  0  0  0  0  0  0  0
   10.3176   15.1278   21.2128 C    0  0  0  0  0  0  0  0  0  0  0  0
   10.3725   15.5957   19.7560 C    0  0  0  0  0  0  0  0  0  0  0  0
   10.7974   14.6927   18.8493 N    0  0  0  0  0  0  0  0  0  0  0  0
    9.9112   16.6554   19.3738 O    0  0  0  0  0  0  0  0  0  0  0  0
    8.8609   15.1818   21.7791 C    0  0  0  0  0  0  0  0  0  0  0  0
    8.8992    8.3693   22.8925 H    0  0  0  0  0  0  0  0  0  0  0  0
    9.8493    8.1384   24.3867 H    0  0  0  0  0  0  0  0  0  0  0  0
   10.6610    8.6146   22.8882 H    0  0  0  0  0  0  0  0  0  0  0  0
    5.8344    8.4953   26.2024 H    0  0  0  0  0  0  0  0  0  0  0  0
    4.3467   13.0619   24.9880 H    0  0  0  0  0  0  0  0  0  0  0  0
    5.3132   14.5001   25.3039 H    0  0  0  0  0  0  0  0  0  0  0  0
    3.3042   15.1424   26.3706 H    0  0  0  0  0  0  0  0  0  0  0  0
    2.8524   13.4841   26.7540 H    0  0  0  0  0  0  0  0  0  0  0  0
    3.6347   14.0220   28.9079 H    0  0  0  0  0  0  0  0  0  0  0  0
    2.6225   16.0911   30.1467 H    0  0  0  0  0  0  0  0  0  0  0  0
    2.1695   15.9976   28.4382 H    0  0  0  0  0  0  0  0  0  0  0  0
    2.2124   17.5452   29.2271 H    0  0  0  0  0  0  0  0  0  0  0  0
    4.4944   18.7023   28.1623 H    0  0  0  0  0  0  0  0  0  0  0  0
    5.7775   18.1152   29.2170 H    0  0  0  0  0  0  0  0  0  0  0  0
    4.2467   18.5647   29.9162 H    0  0  0  0  0  0  0  0  0  0  0  0
    4.9536   12.2109   28.5374 H    0  0  0  0  0  0  0  0  0  0  0  0
    6.3028   13.3237   28.6416 H    0  0  0  0  0  0  0  0  0  0  0  0
    9.3201   13.0187   25.2584 H    0  0  0  0  0  0  0  0  0  0  0  0
    7.9398   13.9214   25.7800 H    0  0  0  0  0  0  0  0  0  0  0  0
    9.6277   15.3963   25.1284 H    0  0  0  0  0  0  0  0  0  0  0  0
    9.3297   16.6532   23.9954 H    0  0  0  0  0  0  0  0  0  0  0  0
   11.5390   14.5310   23.7830 H    0  0  0  0  0  0  0  0  0  0  0  0
   11.7547   16.2210   24.2237 H    0  0  0  0  0  0  0  0  0  0  0  0
   12.3354   15.7476   21.7937 H    0  0  0  0  0  0  0  0  0  0  0  0
   11.1149   17.0011   21.9970 H    0  0  0  0  0  0  0  0  0  0  0  0
   10.6273   14.0786   21.2687 H    0  0  0  0  0  0  0  0  0  0  0  0
   10.7497   14.9207   17.8619 H    0  0  0  0  0  0  0  0  0  0  0  0
   10.9843   13.7319   19.1382 H    0  0  0  0  0  0  0  0  0  0  0  0
    8.2277   14.5802   21.1197 H    0  0  0  0  0  0  0  0  0  0  0  0
    8.4691   16.2024   21.6989 H    0  0  0  0  0  0  0  0  0  0  0  0
 18 19  1  0  0  0  0
  7 18  2  0  0  0  0
  6  7  1  0  0  0  0
  5  6  2  0  0  0  0
  4  5  1  0  0  0  0
  3  4  2  0  0  0  0
  2  3  1  0  0  0  0
  1  2  1  0  0  0  0
 31  1  1  0  0  0  0
 32  1  1  0  0  0  0
 33  1  1  0  0  0  0
 34  5  1  0  0  0  0
  8  7  1  0  0  0  0
  9  8  1  0  0  0  0
 10  9  1  0  0  0  0
 35  9  1  0  0  0  0
 36  9  1  0  0  0  0
 11 10  1  0  0  0  0
 37 10  1  0  0  0  0
 38 10  1  0  0  0  0
 12 11  1  0  0  0  0
 17 11  1  0  0  0  0
 39 11  1  0  0  0  0
 13 12  2  0  0  0  0
 14 12  1  0  0  0  0
 15 14  1  0  0  0  0
 16 14  1  0  0  0  0
 40 15  1  0  0  0  0
 41 15  1  0  0  0  0
 42 15  1  0  0  0  0
 43 16  1  0  0  0  0
 44 16  1  0  0  0  0
 45 16  1  0  0  0  0
 46 17  1  0  0  0  0
 47 17  1  0  0  0  0
 20 19  1  0  0  0  0
 48 19  1  0  0  0  0
 49 19  1  0  0  0  0
 21 20  2  0  0  0  0
 22 20  1  0  0  0  0
 23 22  1  0  0  0  0
 24 23  1  0  0  0  0
 50 23  1  0  0  0  0
 51 23  1  0  0  0  0
 25 24  1  0  0  0  0
 52 24  1  0  0  0  0
 53 24  1  0  0  0  0
 26 25  1  0  0  0  0
 54 25  1  0  0  0  0
 55 25  1  0  0  0  0
 27 26  1  0  0  0  0
 30 26  1  0  0  0  0
 56 26  1  0  0  0  0
 28 27  1  0  0  0  0
 29 27  2  0  0  0  0
 57 28  1  0  0  0  0
 58 28  1  0  0  0  0
 59 30  1  0  0  0  0
 60 30  1  0  0  0  0
 17  8  1  0  0  0  0
 18  3  1  0  0  0  0
 30 22  1  0  0  0  0
M  END
>  <FittedScore>
-36.56

$$$$
