A71EV2A-x4426a_best-RMSD
  FITTED

 38 40     0  0  0  0  0  0  0999 V2000
   10.4617   14.8998   26.3127 C    0  0  0  0  0  0  0  0  0  0  0  0
   10.5702   14.0525   25.4965 C    0  0  0  0  0  0  0  0  0  0  0  0
   10.7846   13.0262   24.4586 C    0  0  0  0  0  0  0  0  0  0  0  0
    9.7773   11.8667   24.4385 C    0  0  0  0  0  0  0  0  0  0  0  0
    8.6087   11.6137   25.1641 C    0  0  0  0  0  0  0  0  0  0  0  0
    7.8169   12.4099   26.0122 C    0  0  0  0  0  0  0  0  0  0  0  0
    6.7083   11.8222   26.6489 C    0  0  0  0  0  0  0  0  0  0  0  0
    6.3904   10.4683   26.4311 C    0  0  0  0  0  0  0  0  0  0  0  0
    7.1726    9.6845   25.5681 C    0  0  0  0  0  0  0  0  0  0  0  0
    8.2765   10.2874   24.9455 C    0  0  0  0  0  0  0  0  0  0  0  0
    9.1857    9.7561   24.0878 N    0  0  0  0  0  0  0  0  0  0  0  0
    9.2278    8.3903   23.5557 C    0  0  0  0  0  0  0  0  0  0  0  0
   10.1232   10.6441   23.6729 N    0  0  0  0  0  0  0  0  0  0  0  0
   10.8458   13.6254   23.0632 N    0  0  0  0  0  0  0  0  0  0  0  0
   11.9585   14.6351   22.8291 C    0  0  0  0  0  0  0  0  0  0  0  0
   12.0413   15.0451   21.3420 C    0  0  0  0  0  0  0  0  0  0  0  0
   10.7796   15.6124   20.7172 C    0  0  0  0  0  0  0  0  0  0  0  0
    9.7805   16.4263   21.4209 N    0  0  0  0  0  0  0  0  0  0  0  0
    8.8887   16.7685   20.3087 C    0  0  0  0  0  0  0  0  0  0  0  0
    9.2874   16.1964   19.1265 O    0  0  0  0  0  0  0  0  0  0  0  0
   10.4458   15.5111   19.3788 C    0  0  0  0  0  0  0  0  0  0  0  0
   10.3570   15.6609   27.0427 H    0  0  0  0  0  0  0  0  0  0  0  0
   11.7644   12.5836   24.6628 H    0  0  0  0  0  0  0  0  0  0  0  0
    8.0271   13.4581   26.1826 H    0  0  0  0  0  0  0  0  0  0  0  0
    6.0919   12.4215   27.3134 H    0  0  0  0  0  0  0  0  0  0  0  0
    5.5320   10.0283   26.9288 H    0  0  0  0  0  0  0  0  0  0  0  0
    6.9231    8.6425   25.3916 H    0  0  0  0  0  0  0  0  0  0  0  0
    9.1935    7.6585   24.3632 H    0  0  0  0  0  0  0  0  0  0  0  0
   10.1478    8.1788   23.0020 H    0  0  0  0  0  0  0  0  0  0  0  0
    8.3859    8.1962   22.8846 H    0  0  0  0  0  0  0  0  0  0  0  0
    9.9345   14.0663   22.8510 H    0  0  0  0  0  0  0  0  0  0  0  0
   10.9608   12.8563   22.3721 H    0  0  0  0  0  0  0  0  0  0  0  0
   12.9105   14.1876   23.1290 H    0  0  0  0  0  0  0  0  0  0  0  0
   11.7893   15.5237   23.4453 H    0  0  0  0  0  0  0  0  0  0  0  0
   12.3578   14.1742   20.7598 H    0  0  0  0  0  0  0  0  0  0  0  0
   12.8377   15.7889   21.2339 H    0  0  0  0  0  0  0  0  0  0  0  0
    8.0345   17.4312   20.4324 H    0  0  0  0  0  0  0  0  0  0  0  0
   11.0235   14.9957   18.6175 H    0  0  0  0  0  0  0  0  0  0  0  0
  3  4  1  0  0  0  0
  2  3  1  0  0  0  0
  1  2  3  0  0  0  0
 22  1  1  0  0  0  0
 23  3  1  0  0  0  0
 13  4  2  0  0  0  0
  5  4  1  0  0  0  0
  6  5  1  0  0  0  0
 24  6  1  0  0  0  0
  7  6  2  0  0  0  0
 25  7  1  0  0  0  0
  8  7  1  0  0  0  0
 26  8  1  0  0  0  0
  9  8  2  0  0  0  0
 27  9  1  0  0  0  0
 10  9  1  0  0  0  0
 11 10  1  0  0  0  0
 12 11  1  0  0  0  0
 28 12  1  0  0  0  0
 29 12  1  0  0  0  0
 30 12  1  0  0  0  0
 14  3  1  0  0  0  0
 31 14  1  0  0  0  0
 32 14  1  0  0  0  0
 15 14  1  0  0  0  0
 33 15  1  0  0  0  0
 34 15  1  0  0  0  0
 16 15  1  0  0  0  0
 35 16  1  0  0  0  0
 36 16  1  0  0  0  0
 17 16  1  0  0  0  0
 21 17  2  0  0  0  0
 18 17  1  0  0  0  0
 19 18  2  0  0  0  0
 37 19  1  0  0  0  0
 20 19  1  0  0  0  0
 38 21  1  0  0  0  0
 10  5  2  0  0  0  0
 13 11  1  0  0  0  0
 21 20  1  0  0  0  0
M  CHG  1  14   1
M  END
>  <FittedScore>
-29.95

$$$$
