A71EV2A-x4426a_lowest-energy
  FITTED

 38 40     0  0  0  0  0  0  0999 V2000
    7.6904   14.2619   22.0721 C    0  0  0  0  0  0  0  0  0  0  0  0
    8.5859   13.9056   22.7560 C    0  0  0  0  0  0  0  0  0  0  0  0
    9.6385   13.3893   23.6454 C    0  0  0  0  0  0  0  0  0  0  0  0
    9.2695   11.9562   24.0051 C    0  0  0  0  0  0  0  0  0  0  0  0
    8.2690   11.5621   24.8801 C    0  0  0  0  0  0  0  0  0  0  0  0
    7.4145   12.3095   25.7035 C    0  0  0  0  0  0  0  0  0  0  0  0
    6.4434   11.6180   26.4529 C    0  0  0  0  0  0  0  0  0  0  0  0
    6.3350   10.2135   26.3645 C    0  0  0  0  0  0  0  0  0  0  0  0
    7.2057    9.4868   25.5318 C    0  0  0  0  0  0  0  0  0  0  0  0
    8.1759   10.1905   24.8044 C    0  0  0  0  0  0  0  0  0  0  0  0
    9.1227    9.7543   23.9292 N    0  0  0  0  0  0  0  0  0  0  0  0
    9.2620    8.3947   23.4090 C    0  0  0  0  0  0  0  0  0  0  0  0
    9.8227   10.7569   23.3242 N    0  0  0  0  0  0  0  0  0  0  0  0
   11.0042   13.4208   22.9766 N    0  0  0  0  0  0  0  0  0  0  0  0
   11.7430   14.7459   23.0441 C    0  0  0  0  0  0  0  0  0  0  0  0
   12.0490   15.3167   21.6438 C    0  0  0  0  0  0  0  0  0  0  0  0
   10.8372   15.7301   20.8307 C    0  0  0  0  0  0  0  0  0  0  0  0
    9.9276   16.8275   21.1803 N    0  0  0  0  0  0  0  0  0  0  0  0
    8.9970   16.7552   20.0503 C    0  0  0  0  0  0  0  0  0  0  0  0
    9.2917   15.7335   19.1824 O    0  0  0  0  0  0  0  0  0  0  0  0
   10.4229   15.1252   19.6565 C    0  0  0  0  0  0  0  0  0  0  0  0
    6.8873   14.5703   21.4590 H    0  0  0  0  0  0  0  0  0  0  0  0
    9.6739   13.9815   24.5646 H    0  0  0  0  0  0  0  0  0  0  0  0
    7.4877   13.3935   25.7547 H    0  0  0  0  0  0  0  0  0  0  0  0
    5.7669   12.1744   27.0941 H    0  0  0  0  0  0  0  0  0  0  0  0
    5.5721    9.6889   26.9356 H    0  0  0  0  0  0  0  0  0  0  0  0
    7.1192    8.4059   25.4584 H    0  0  0  0  0  0  0  0  0  0  0  0
   10.0858    8.2978   22.6921 H    0  0  0  0  0  0  0  0  0  0  0  0
    8.3518    8.0824   22.8850 H    0  0  0  0  0  0  0  0  0  0  0  0
    9.4510    7.6790   24.2050 H    0  0  0  0  0  0  0  0  0  0  0  0
   10.9189   13.0825   21.9931 H    0  0  0  0  0  0  0  0  0  0  0  0
   11.5960   12.7184   23.4575 H    0  0  0  0  0  0  0  0  0  0  0  0
   12.6847   14.5592   23.5671 H    0  0  0  0  0  0  0  0  0  0  0  0
   11.1925   15.4838   23.6350 H    0  0  0  0  0  0  0  0  0  0  0  0
   12.6418   14.5912   21.0829 H    0  0  0  0  0  0  0  0  0  0  0  0
   12.6874   16.1956   21.7637 H    0  0  0  0  0  0  0  0  0  0  0  0
    8.1770   17.4608   19.9357 H    0  0  0  0  0  0  0  0  0  0  0  0
   10.9076   14.2832   19.1728 H    0  0  0  0  0  0  0  0  0  0  0  0
  3  4  1  0  0  0  0
  2  3  1  0  0  0  0
  1  2  3  0  0  0  0
 22  1  1  0  0  0  0
 23  3  1  0  0  0  0
 13  4  2  0  0  0  0
  5  4  1  0  0  0  0
  6  5  1  0  0  0  0
 24  6  1  0  0  0  0
  7  6  2  0  0  0  0
 25  7  1  0  0  0  0
  8  7  1  0  0  0  0
 26  8  1  0  0  0  0
  9  8  2  0  0  0  0
 27  9  1  0  0  0  0
 10  9  1  0  0  0  0
 11 10  1  0  0  0  0
 12 11  1  0  0  0  0
 28 12  1  0  0  0  0
 29 12  1  0  0  0  0
 30 12  1  0  0  0  0
 14  3  1  0  0  0  0
 31 14  1  0  0  0  0
 32 14  1  0  0  0  0
 15 14  1  0  0  0  0
 33 15  1  0  0  0  0
 34 15  1  0  0  0  0
 16 15  1  0  0  0  0
 35 16  1  0  0  0  0
 36 16  1  0  0  0  0
 17 16  1  0  0  0  0
 21 17  2  0  0  0  0
 18 17  1  0  0  0  0
 19 18  2  0  0  0  0
 37 19  1  0  0  0  0
 20 19  1  0  0  0  0
 38 21  1  0  0  0  0
 10  5  2  0  0  0  0
 13 11  1  0  0  0  0
 21 20  1  0  0  0  0
M  CHG  1  14   1
M  END
>  <FittedScore>
-30.63

$$$$
