A71EV2A-x4018b_best-RMSD
  FITTED

 43 44     0  0  0  0  0  0  0999 V2000
    9.7986   16.7970   19.2627 O    0  0  0  0  0  0  0  0  0  0  0  0
   10.1579   15.7229   19.7070 C    0  0  0  0  0  0  0  0  0  0  0  0
   10.5579   14.7488   18.8692 N    0  0  0  0  0  0  0  0  0  0  0  0
   10.1644   15.3962   21.1995 C    0  0  0  0  0  0  0  0  0  0  0  0
   11.3611   16.1433   21.8864 C    0  0  0  0  0  0  0  0  0  0  0  0
   11.8249   15.4532   23.2010 C    0  0  0  0  0  0  0  0  0  0  0  0
   10.8834   15.6736   24.4117 C    0  0  0  0  0  0  0  0  0  0  0  0
    8.7412   15.6492   21.8240 C    0  0  0  0  0  0  0  0  0  0  0  0
    8.6819   16.0078   23.3313 C    0  0  0  0  0  0  0  0  0  0  0  0
    9.5074   15.1168   24.2079 N    0  0  0  0  0  0  0  0  0  0  0  0
    9.1376   13.8628   24.6552 C    0  0  0  0  0  0  0  0  0  0  0  0
    9.9352   13.1512   25.2416 O    0  0  0  0  0  0  0  0  0  0  0  0
    7.7545   13.2955   24.2960 C    0  0  0  0  0  0  0  0  0  0  0  0
    7.3101   12.1209   25.1800 C    0  0  0  0  0  0  0  0  0  0  0  0
    7.7977   10.8090   24.9709 C    0  0  0  0  0  0  0  0  0  0  0  0
    8.7275   10.6040   23.9562 O    0  0  0  0  0  0  0  0  0  0  0  0
    9.5868    9.4592   23.8044 C    0  0  0  0  0  0  0  0  0  0  0  0
    6.3912   12.3618   26.2219 C    0  0  0  0  0  0  0  0  0  0  0  0
    5.9164   11.3059   27.0094 C    0  0  0  0  0  0  0  0  0  0  0  0
    6.3631   10.0015   26.7745 C    0  0  0  0  0  0  0  0  0  0  0  0
    7.3040    9.7549   25.7679 C    0  0  0  0  0  0  0  0  0  0  0  0
   10.5266   14.9069   17.8710 H    0  0  0  0  0  0  0  0  0  0  0  0
   10.7506   13.8131   19.2157 H    0  0  0  0  0  0  0  0  0  0  0  0
   10.3412   14.3201   21.3157 H    0  0  0  0  0  0  0  0  0  0  0  0
   12.2225   16.1644   21.2102 H    0  0  0  0  0  0  0  0  0  0  0  0
   11.1087   17.1940   22.0660 H    0  0  0  0  0  0  0  0  0  0  0  0
   11.9675   14.3800   23.0389 H    0  0  0  0  0  0  0  0  0  0  0  0
   12.8120   15.8414   23.4641 H    0  0  0  0  0  0  0  0  0  0  0  0
   11.3582   15.2314   25.2915 H    0  0  0  0  0  0  0  0  0  0  0  0
   10.8463   16.7385   24.6578 H    0  0  0  0  0  0  0  0  0  0  0  0
    8.1147   14.7757   21.6297 H    0  0  0  0  0  0  0  0  0  0  0  0
    8.2373   16.4688   21.3069 H    0  0  0  0  0  0  0  0  0  0  0  0
    7.6428   16.0357   23.6586 H    0  0  0  0  0  0  0  0  0  0  0  0
    8.9758   17.0577   23.4340 H    0  0  0  0  0  0  0  0  0  0  0  0
    6.9860   14.0655   24.3652 H    0  0  0  0  0  0  0  0  0  0  0  0
    7.7628   12.9888   23.2473 H    0  0  0  0  0  0  0  0  0  0  0  0
   10.2334    9.6196   22.9401 H    0  0  0  0  0  0  0  0  0  0  0  0
    9.0063    8.5477   23.6459 H    0  0  0  0  0  0  0  0  0  0  0  0
   10.2160    9.3486   24.6919 H    0  0  0  0  0  0  0  0  0  0  0  0
    6.0324   13.3696   26.4200 H    0  0  0  0  0  0  0  0  0  0  0  0
    5.2015   11.5023   27.8023 H    0  0  0  0  0  0  0  0  0  0  0  0
    5.9864    9.1796   27.3779 H    0  0  0  0  0  0  0  0  0  0  0  0
    7.6384    8.7346   25.6170 H    0  0  0  0  0  0  0  0  0  0  0  0
 10 11  1  0  0  0  0
  7 10  1  0  0  0  0
  6  7  1  0  0  0  0
  5  6  1  0  0  0  0
  4  5  1  0  0  0  0
  2  4  1  0  0  0  0
  1  2  2  0  0  0  0
  3  2  1  0  0  0  0
 22  3  1  0  0  0  0
 23  3  1  0  0  0  0
 24  4  1  0  0  0  0
 25  5  1  0  0  0  0
 26  5  1  0  0  0  0
 27  6  1  0  0  0  0
 28  6  1  0  0  0  0
 29  7  1  0  0  0  0
 30  7  1  0  0  0  0
  8  4  1  0  0  0  0
 31  8  1  0  0  0  0
 32  8  1  0  0  0  0
  9  8  1  0  0  0  0
 33  9  1  0  0  0  0
 34  9  1  0  0  0  0
 12 11  2  0  0  0  0
 13 11  1  0  0  0  0
 35 13  1  0  0  0  0
 36 13  1  0  0  0  0
 14 13  1  0  0  0  0
 15 14  1  0  0  0  0
 21 15  2  0  0  0  0
 16 15  1  0  0  0  0
 17 16  1  0  0  0  0
 37 17  1  0  0  0  0
 38 17  1  0  0  0  0
 39 17  1  0  0  0  0
 18 14  2  0  0  0  0
 40 18  1  0  0  0  0
 19 18  1  0  0  0  0
 41 19  1  0  0  0  0
 20 19  2  0  0  0  0
 42 20  1  0  0  0  0
 43 21  1  0  0  0  0
 10  9  1  0  0  0  0
 21 20  1  0  0  0  0
M  END
>  <FittedScore>
-31.67

$$$$
