A71EV2A-x3571a_best-RMSD
  FITTED

 43 44     0  0  0  0  0  0  0999 V2000
    9.7430   16.7933   19.2597 O    0  0  0  0  0  0  0  0  0  0  0  0
   10.1203   15.6968   19.6363 C    0  0  0  0  0  0  0  0  0  0  0  0
   10.6676   14.8228   18.7725 N    0  0  0  0  0  0  0  0  0  0  0  0
   10.0608   15.2118   21.0807 C    0  0  0  0  0  0  0  0  0  0  0  0
   11.2036   15.9096   21.8836 C    0  0  0  0  0  0  0  0  0  0  0  0
   11.5080   15.1992   23.2325 C    0  0  0  0  0  0  0  0  0  0  0  0
   10.5766   15.5796   24.4135 C    0  0  0  0  0  0  0  0  0  0  0  0
    9.0910   15.8611   24.0545 C    0  0  0  0  0  0  0  0  0  0  0  0
    8.6208   15.3765   21.6636 C    0  0  0  0  0  0  0  0  0  0  0  0
    8.4541   14.9062   23.0777 N    0  0  0  0  0  0  0  0  0  0  0  0
    7.7352   13.7761   23.4295 C    0  0  0  0  0  0  0  0  0  0  0  0
    7.0618   13.1635   22.6161 O    0  0  0  0  0  0  0  0  0  0  0  0
    7.8453   13.2734   24.8775 C    0  0  0  0  0  0  0  0  0  0  0  0
    7.0912   11.9814   25.2042 C    0  0  0  0  0  0  0  0  0  0  0  0
    7.5822   10.7159   24.8061 C    0  0  0  0  0  0  0  0  0  0  0  0
    8.7178   10.6677   24.0007 O    0  0  0  0  0  0  0  0  0  0  0  0
    9.3287    9.4680   23.4668 C    0  0  0  0  0  0  0  0  0  0  0  0
    5.9119   12.0662   25.9733 C    0  0  0  0  0  0  0  0  0  0  0  0
    5.2419   10.9072   26.3769 C    0  0  0  0  0  0  0  0  0  0  0  0
    5.7368    9.6527   26.0141 C    0  0  0  0  0  0  0  0  0  0  0  0
    6.8942    9.5567   25.2308 C    0  0  0  0  0  0  0  0  0  0  0  0
   10.7098   15.0496   17.7964 H    0  0  0  0  0  0  0  0  0  0  0  0
   10.8976   13.8744   19.0657 H    0  0  0  0  0  0  0  0  0  0  0  0
   10.2539   14.1330   21.0934 H    0  0  0  0  0  0  0  0  0  0  0  0
   12.1247   15.8923   21.2903 H    0  0  0  0  0  0  0  0  0  0  0  0
   10.9763   16.9677   22.0411 H    0  0  0  0  0  0  0  0  0  0  0  0
   11.4922   14.1129   23.0998 H    0  0  0  0  0  0  0  0  0  0  0  0
   12.5375   15.4342   23.5187 H    0  0  0  0  0  0  0  0  0  0  0  0
   10.6271   14.7841   25.1588 H    0  0  0  0  0  0  0  0  0  0  0  0
   10.9814   16.4680   24.9024 H    0  0  0  0  0  0  0  0  0  0  0  0
    8.5185   15.9246   24.9793 H    0  0  0  0  0  0  0  0  0  0  0  0
    9.0227   16.8923   23.6918 H    0  0  0  0  0  0  0  0  0  0  0  0
    7.9344   14.8563   20.9911 H    0  0  0  0  0  0  0  0  0  0  0  0
    8.3032   16.4221   21.5875 H    0  0  0  0  0  0  0  0  0  0  0  0
    8.8987   13.1143   25.1195 H    0  0  0  0  0  0  0  0  0  0  0  0
    7.4947   14.0447   25.5659 H    0  0  0  0  0  0  0  0  0  0  0  0
   10.1398    9.7597   22.7961 H    0  0  0  0  0  0  0  0  0  0  0  0
    8.6058    8.8720   22.9017 H    0  0  0  0  0  0  0  0  0  0  0  0
    9.7407    8.8721   24.2818 H    0  0  0  0  0  0  0  0  0  0  0  0
    5.5135   13.0334   26.2726 H    0  0  0  0  0  0  0  0  0  0  0  0
    4.3389   10.9871   26.9782 H    0  0  0  0  0  0  0  0  0  0  0  0
    5.2231    8.7517   26.3385 H    0  0  0  0  0  0  0  0  0  0  0  0
    7.2485    8.5631   24.9674 H    0  0  0  0  0  0  0  0  0  0  0  0
 10 11  1  0  0  0  0
  8 10  1  0  0  0  0
  7  8  1  0  0  0  0
  6  7  1  0  0  0  0
  5  6  1  0  0  0  0
  4  5  1  0  0  0  0
  2  4  1  0  0  0  0
  1  2  2  0  0  0  0
  3  2  1  0  0  0  0
 22  3  1  0  0  0  0
 23  3  1  0  0  0  0
 24  4  1  0  0  0  0
 25  5  1  0  0  0  0
 26  5  1  0  0  0  0
 27  6  1  0  0  0  0
 28  6  1  0  0  0  0
 29  7  1  0  0  0  0
 30  7  1  0  0  0  0
 31  8  1  0  0  0  0
 32  8  1  0  0  0  0
  9  4  1  0  0  0  0
 33  9  1  0  0  0  0
 34  9  1  0  0  0  0
 12 11  2  0  0  0  0
 13 11  1  0  0  0  0
 35 13  1  0  0  0  0
 36 13  1  0  0  0  0
 14 13  1  0  0  0  0
 15 14  1  0  0  0  0
 21 15  2  0  0  0  0
 16 15  1  0  0  0  0
 17 16  1  0  0  0  0
 37 17  1  0  0  0  0
 38 17  1  0  0  0  0
 39 17  1  0  0  0  0
 18 14  2  0  0  0  0
 40 18  1  0  0  0  0
 19 18  1  0  0  0  0
 41 19  1  0  0  0  0
 20 19  2  0  0  0  0
 42 20  1  0  0  0  0
 43 21  1  0  0  0  0
 10  9  1  0  0  0  0
 21 20  1  0  0  0  0
M  END
>  <FittedScore>
-36.70

$$$$
