A71EV2A-x7172a_best-RMSD
  FITTED

 53 55     0  0  0  0  0  0  0999 V2000
    9.6657   16.5525   19.5011 O    0  0  0  0  0  0  0  0  0  0  0  0
   10.2140   15.5266   19.8433 C    0  0  0  0  0  0  0  0  0  0  0  0
   10.7847   14.7349   18.9109 N    0  0  0  0  0  0  0  0  0  0  0  0
   10.2184   15.0185   21.2891 C    0  0  0  0  0  0  0  0  0  0  0  0
   11.2961   15.7666   22.1292 C    0  0  0  0  0  0  0  0  0  0  0  0
   11.2531   15.3364   23.6223 C    0  0  0  0  0  0  0  0  0  0  0  0
    9.8111   15.3931   24.2076 C    0  0  0  0  0  0  0  0  0  0  0  0
    8.8134   15.1361   21.9701 C    0  0  0  0  0  0  0  0  0  0  0  0
    8.8050   14.6344   23.3885 N    0  0  0  0  0  0  0  0  0  0  0  0
    8.0140   13.5826   23.8134 C    0  0  0  0  0  0  0  0  0  0  0  0
    7.2472   13.0321   23.0417 O    0  0  0  0  0  0  0  0  0  0  0  0
    8.1672   13.0349   25.2464 C    0  0  0  0  0  0  0  0  0  0  0  0
    7.4041   11.7185   25.5242 C    0  0  0  0  0  0  0  0  0  0  0  0
    7.9055   10.4918   24.9940 C    0  0  0  0  0  0  0  0  0  0  0  0
    9.3409   10.4438   23.9090 S    0  0  0  0  0  0  0  0  0  0  0  0
    9.5806    8.7131   23.3917 C    0  0  0  0  0  0  0  0  0  0  0  0
    6.2007   11.6499   26.3061 C    0  0  0  0  0  0  0  0  0  0  0  0
    5.6316   10.4398   26.5898 N    0  0  0  0  0  0  0  0  0  0  0  0
    6.1914    9.3269   26.0649 C    0  0  0  0  0  0  0  0  0  0  0  0
    7.2888    9.3114   25.2687 N    0  0  0  0  0  0  0  0  0  0  0  0
    5.5144   12.7576   26.8001 N    0  0  0  0  0  0  0  0  0  0  0  0
    4.9794   13.7421   25.8284 C    0  0  0  0  0  0  0  0  0  0  0  0
    4.8569   12.7381   28.1691 C    0  0  0  0  0  0  0  0  0  0  0  0
    5.8453   12.4874   29.3629 C    0  0  0  0  0  0  0  0  0  0  0  0
    4.9044   13.4176   30.1955 C    0  0  0  0  0  0  0  0  0  0  0  0
    4.5863   14.1334   28.8390 C    0  0  0  0  0  0  0  0  0  0  0  0
   10.7404   15.0034   17.9326 H    0  0  0  0  0  0  0  0  0  0  0  0
   11.0785   13.7912   19.1613 H    0  0  0  0  0  0  0  0  0  0  0  0
   10.4814   13.9529   21.2882 H    0  0  0  0  0  0  0  0  0  0  0  0
   12.2895   15.5605   21.7223 H    0  0  0  0  0  0  0  0  0  0  0  0
   11.1397   16.8474   22.0587 H    0  0  0  0  0  0  0  0  0  0  0  0
   11.6573   14.3245   23.7215 H    0  0  0  0  0  0  0  0  0  0  0  0
   11.9063   15.9940   24.2013 H    0  0  0  0  0  0  0  0  0  0  0  0
    9.8587   15.0652   25.2449 H    0  0  0  0  0  0  0  0  0  0  0  0
    9.4963   16.4409   24.2659 H    0  0  0  0  0  0  0  0  0  0  0  0
    8.0898   14.6233   21.3316 H    0  0  0  0  0  0  0  0  0  0  0  0
    8.4845   16.1810   21.9727 H    0  0  0  0  0  0  0  0  0  0  0  0
    9.2204   12.8516   25.4764 H    0  0  0  0  0  0  0  0  0  0  0  0
    7.8815   13.8068   25.9628 H    0  0  0  0  0  0  0  0  0  0  0  0
    9.6863    8.0877   24.2797 H    0  0  0  0  0  0  0  0  0  0  0  0
   10.4931    8.6127   22.8003 H    0  0  0  0  0  0  0  0  0  0  0  0
    8.7352    8.3862   22.7846 H    0  0  0  0  0  0  0  0  0  0  0  0
    5.7291    8.3734   26.3066 H    0  0  0  0  0  0  0  0  0  0  0  0
    3.9200   13.9494   25.9968 H    0  0  0  0  0  0  0  0  0  0  0  0
    5.0422   13.3951   24.7933 H    0  0  0  0  0  0  0  0  0  0  0  0
    5.5155   14.6920   25.8852 H    0  0  0  0  0  0  0  0  0  0  0  0
    3.9664   12.0883   28.1776 H    0  0  0  0  0  0  0  0  0  0  0  0
    5.9252   11.4537   29.7156 H    0  0  0  0  0  0  0  0  0  0  0  0
    6.8669   12.8660   29.2245 H    0  0  0  0  0  0  0  0  0  0  0  0
    4.0491   12.9140   30.6667 H    0  0  0  0  0  0  0  0  0  0  0  0
    5.3906   14.0387   30.9530 H    0  0  0  0  0  0  0  0  0  0  0  0
    3.5681   14.5243   28.7337 H    0  0  0  0  0  0  0  0  0  0  0  0
    5.2807   14.9409   28.5727 H    0  0  0  0  0  0  0  0  0  0  0  0
 10 12  1  0  0  0  0
  9 10  1  0  0  0  0
  7  9  1  0  0  0  0
  6  7  1  0  0  0  0
  5  6  1  0  0  0  0
  4  5  1  0  0  0  0
  2  4  1  0  0  0  0
  1  2  2  0  0  0  0
  3  2  1  0  0  0  0
 27  3  1  0  0  0  0
 28  3  1  0  0  0  0
 29  4  1  0  0  0  0
 30  5  1  0  0  0  0
 31  5  1  0  0  0  0
 32  6  1  0  0  0  0
 33  6  1  0  0  0  0
 34  7  1  0  0  0  0
 35  7  1  0  0  0  0
  8  4  1  0  0  0  0
 36  8  1  0  0  0  0
 37  8  1  0  0  0  0
 11 10  2  0  0  0  0
 38 12  1  0  0  0  0
 39 12  1  0  0  0  0
 13 12  1  0  0  0  0
 14 13  1  0  0  0  0
 20 14  2  0  0  0  0
 15 14  1  0  0  0  0
 16 15  1  0  0  0  0
 40 16  1  0  0  0  0
 41 16  1  0  0  0  0
 42 16  1  0  0  0  0
 17 13  2  0  0  0  0
 18 17  1  0  0  0  0
 19 18  2  0  0  0  0
 43 19  1  0  0  0  0
 21 17  1  0  0  0  0
 22 21  1  0  0  0  0
 44 22  1  0  0  0  0
 45 22  1  0  0  0  0
 46 22  1  0  0  0  0
 23 21  1  0  0  0  0
 26 23  1  0  0  0  0
 47 23  1  0  0  0  0
 24 23  1  0  0  0  0
 48 24  1  0  0  0  0
 49 24  1  0  0  0  0
 25 24  1  0  0  0  0
 50 25  1  0  0  0  0
 51 25  1  0  0  0  0
 52 26  1  0  0  0  0
 53 26  1  0  0  0  0
  9  8  1  0  0  0  0
 20 19  1  0  0  0  0
 26 25  1  0  0  0  0
M  END
>  <FittedScore>
-34.29

$$$$
