A71EV2A-x7172a_lowest-energy
  FITTED

 53 55     0  0  0  0  0  0  0999 V2000
    9.6947   16.5947   19.4818 O    0  0  0  0  0  0  0  0  0  0  0  0
   10.2424   15.5694   19.8362 C    0  0  0  0  0  0  0  0  0  0  0  0
   10.7262   14.7233   18.9037 N    0  0  0  0  0  0  0  0  0  0  0  0
   10.2715   15.0901   21.2902 C    0  0  0  0  0  0  0  0  0  0  0  0
   11.2932   15.9015   22.1484 C    0  0  0  0  0  0  0  0  0  0  0  0
   11.2746   15.4083   23.6255 C    0  0  0  0  0  0  0  0  0  0  0  0
    9.8333   15.3846   24.2087 C    0  0  0  0  0  0  0  0  0  0  0  0
    8.8585   15.1375   21.9571 C    0  0  0  0  0  0  0  0  0  0  0  0
    8.8570   14.6118   23.3648 N    0  0  0  0  0  0  0  0  0  0  0  0
    8.0755   13.5481   23.7735 C    0  0  0  0  0  0  0  0  0  0  0  0
    7.3083   13.0027   22.9963 O    0  0  0  0  0  0  0  0  0  0  0  0
    8.2322   12.9905   25.2046 C    0  0  0  0  0  0  0  0  0  0  0  0
    7.4715   11.6708   25.4871 C    0  0  0  0  0  0  0  0  0  0  0  0
    7.9753   10.4360   24.9803 C    0  0  0  0  0  0  0  0  0  0  0  0
    9.4352   10.3748   23.9364 S    0  0  0  0  0  0  0  0  0  0  0  0
    9.6307    8.6635   23.3509 C    0  0  0  0  0  0  0  0  0  0  0  0
    6.2620   11.6157   26.2574 C    0  0  0  0  0  0  0  0  0  0  0  0
    5.6739   10.4111   26.5452 N    0  0  0  0  0  0  0  0  0  0  0  0
    6.2373    9.2878   26.0331 C    0  0  0  0  0  0  0  0  0  0  0  0
    7.3492    9.2581   25.2587 N    0  0  0  0  0  0  0  0  0  0  0  0
    5.5858   12.7438   26.7159 N    0  0  0  0  0  0  0  0  0  0  0  0
    5.2118   12.8199   28.1552 C    0  0  0  0  0  0  0  0  0  0  0  0
    5.0257   13.7359   25.7105 C    0  0  0  0  0  0  0  0  0  0  0  0
    3.5271   14.1669   25.8595 C    0  0  0  0  0  0  0  0  0  0  0  0
    3.9830   15.5559   25.3018 C    0  0  0  0  0  0  0  0  0  0  0  0
    5.3814   15.2477   25.9271 C    0  0  0  0  0  0  0  0  0  0  0  0
   10.7173   14.9917   17.9242 H    0  0  0  0  0  0  0  0  0  0  0  0
   10.9708   13.7652   19.1622 H    0  0  0  0  0  0  0  0  0  0  0  0
   10.6022   14.0448   21.3035 H    0  0  0  0  0  0  0  0  0  0  0  0
   12.3018   15.7883   21.7405 H    0  0  0  0  0  0  0  0  0  0  0  0
   11.0495   16.9718   22.1147 H    0  0  0  0  0  0  0  0  0  0  0  0
   11.7043   14.4036   23.6841 H    0  0  0  0  0  0  0  0  0  0  0  0
   11.9053   16.0582   24.2364 H    0  0  0  0  0  0  0  0  0  0  0  0
    9.9032   15.0261   25.2360 H    0  0  0  0  0  0  0  0  0  0  0  0
    9.4638   16.4123   24.3092 H    0  0  0  0  0  0  0  0  0  0  0  0
    8.1656   14.6051   21.3031 H    0  0  0  0  0  0  0  0  0  0  0  0
    8.4946   16.1701   21.9719 H    0  0  0  0  0  0  0  0  0  0  0  0
    9.2877   12.8084   25.4147 H    0  0  0  0  0  0  0  0  0  0  0  0
    7.9561   13.7570   25.9275 H    0  0  0  0  0  0  0  0  0  0  0  0
    8.7446    8.3548   22.7918 H    0  0  0  0  0  0  0  0  0  0  0  0
    9.7670    7.9950   24.2032 H    0  0  0  0  0  0  0  0  0  0  0  0
   10.5090    8.5885   22.7056 H    0  0  0  0  0  0  0  0  0  0  0  0
    5.7559    8.3402   26.2562 H    0  0  0  0  0  0  0  0  0  0  0  0
    4.2262   12.3810   28.3411 H    0  0  0  0  0  0  0  0  0  0  0  0
    5.1789   13.8437   28.5297 H    0  0  0  0  0  0  0  0  0  0  0  0
    5.9239   12.2908   28.7939 H    0  0  0  0  0  0  0  0  0  0  0  0
    5.2277   13.4006   24.6845 H    0  0  0  0  0  0  0  0  0  0  0  0
    2.8170   13.6182   25.2324 H    0  0  0  0  0  0  0  0  0  0  0  0
    3.1121   14.2078   26.8723 H    0  0  0  0  0  0  0  0  0  0  0  0
    3.9710   15.6428   24.2067 H    0  0  0  0  0  0  0  0  0  0  0  0
    3.4593   16.4250   25.7117 H    0  0  0  0  0  0  0  0  0  0  0  0
    6.2425   15.6169   25.3630 H    0  0  0  0  0  0  0  0  0  0  0  0
    5.4930   15.5873   26.9635 H    0  0  0  0  0  0  0  0  0  0  0  0
 10 12  1  0  0  0  0
  9 10  1  0  0  0  0
  7  9  1  0  0  0  0
  6  7  1  0  0  0  0
  5  6  1  0  0  0  0
  4  5  1  0  0  0  0
  2  4  1  0  0  0  0
  1  2  2  0  0  0  0
  3  2  1  0  0  0  0
 27  3  1  0  0  0  0
 28  3  1  0  0  0  0
 29  4  1  0  0  0  0
 30  5  1  0  0  0  0
 31  5  1  0  0  0  0
 32  6  1  0  0  0  0
 33  6  1  0  0  0  0
 34  7  1  0  0  0  0
 35  7  1  0  0  0  0
  8  4  1  0  0  0  0
 36  8  1  0  0  0  0
 37  8  1  0  0  0  0
 11 10  2  0  0  0  0
 38 12  1  0  0  0  0
 39 12  1  0  0  0  0
 13 12  1  0  0  0  0
 14 13  1  0  0  0  0
 20 14  2  0  0  0  0
 15 14  1  0  0  0  0
 16 15  1  0  0  0  0
 40 16  1  0  0  0  0
 41 16  1  0  0  0  0
 42 16  1  0  0  0  0
 17 13  2  0  0  0  0
 18 17  1  0  0  0  0
 19 18  2  0  0  0  0
 43 19  1  0  0  0  0
 21 17  1  0  0  0  0
 22 21  1  0  0  0  0
 44 22  1  0  0  0  0
 45 22  1  0  0  0  0
 46 22  1  0  0  0  0
 23 21  1  0  0  0  0
 26 23  1  0  0  0  0
 47 23  1  0  0  0  0
 24 23  1  0  0  0  0
 48 24  1  0  0  0  0
 49 24  1  0  0  0  0
 25 24  1  0  0  0  0
 50 25  1  0  0  0  0
 51 25  1  0  0  0  0
 52 26  1  0  0  0  0
 53 26  1  0  0  0  0
  9  8  1  0  0  0  0
 20 19  1  0  0  0  0
 26 25  1  0  0  0  0
M  END
>  <FittedScore>
-34.21

$$$$
