A71EV2A-x6948b_lowest-energy
  FITTED

 55 57     0  0  0  0  0  0  0999 V2000
    9.5422    8.5766   23.5394 C    0  0  0  0  0  0  0  0  0  0  0  0
    9.3946   10.3107   24.0627 S    0  0  0  0  0  0  0  0  0  0  0  0
    7.7970   10.5486   24.8515 C    0  0  0  0  0  0  0  0  0  0  0  0
    6.9861    9.4516   25.1932 C    0  0  0  0  0  0  0  0  0  0  0  0
    5.7179    9.6313   25.7520 C    0  0  0  0  0  0  0  0  0  0  0  0
    5.1919   10.9230   26.0006 C    0  0  0  0  0  0  0  0  0  0  0  0
    3.7896   11.1204   26.5344 C    0  0  0  0  0  0  0  0  0  0  0  0
    2.9837   12.2217   26.1198 C    0  0  0  0  0  0  0  0  0  0  0  0
    1.7081   12.4152   26.5555 N    0  0  0  0  0  0  0  0  0  0  0  0
    1.1620   11.5301   27.4250 C    0  0  0  0  0  0  0  0  0  0  0  0
    1.8632   10.4065   27.8891 C    0  0  0  0  0  0  0  0  0  0  0  0
    1.1012    9.2641   29.0199 S    0  0  0  0  0  0  0  0  0  0  0  0
    2.1052    9.4319   30.4840 C    0  0  0  0  0  0  0  0  0  0  0  0
    1.2918    7.9405   28.4915 O    0  0  0  0  0  0  0  0  0  0  0  0
   -0.2260    9.6979   29.3568 O    0  0  0  0  0  0  0  0  0  0  0  0
    3.1853   10.2084   27.4445 C    0  0  0  0  0  0  0  0  0  0  0  0
    6.0377   12.0186   25.6890 C    0  0  0  0  0  0  0  0  0  0  0  0
    7.3211   11.8519   25.1324 C    0  0  0  0  0  0  0  0  0  0  0  0
    8.1425   13.1159   24.8434 C    0  0  0  0  0  0  0  0  0  0  0  0
    8.0921   13.6068   23.3851 C    0  0  0  0  0  0  0  0  0  0  0  0
    7.2789   13.1274   22.6122 O    0  0  0  0  0  0  0  0  0  0  0  0
    8.9139   14.6441   22.9892 N    0  0  0  0  0  0  0  0  0  0  0  0
    9.7728   15.4983   23.8901 C    0  0  0  0  0  0  0  0  0  0  0  0
   11.2299   15.6916   23.3834 C    0  0  0  0  0  0  0  0  0  0  0  0
   11.2617   16.2229   21.9283 C    0  0  0  0  0  0  0  0  0  0  0  0
   10.3892   15.3039   21.0320 C    0  0  0  0  0  0  0  0  0  0  0  0
   10.3925   15.7868   19.5959 C    0  0  0  0  0  0  0  0  0  0  0  0
   10.7860   14.8662   18.7031 N    0  0  0  0  0  0  0  0  0  0  0  0
    9.9282   16.8535   19.2503 O    0  0  0  0  0  0  0  0  0  0  0  0
    8.9374   15.1750   21.5843 C    0  0  0  0  0  0  0  0  0  0  0  0
    8.7041    8.3049   22.8955 H    0  0  0  0  0  0  0  0  0  0  0  0
    9.5662    7.9319   24.4182 H    0  0  0  0  0  0  0  0  0  0  0  0
   10.4729    8.4375   22.9864 H    0  0  0  0  0  0  0  0  0  0  0  0
    7.3103    8.4314   25.0203 H    0  0  0  0  0  0  0  0  0  0  0  0
    5.1314    8.7387   25.9630 H    0  0  0  0  0  0  0  0  0  0  0  0
    3.3771   12.9456   25.4097 H    0  0  0  0  0  0  0  0  0  0  0  0
    0.1426   11.7062   27.7545 H    0  0  0  0  0  0  0  0  0  0  0  0
    3.1442    9.1758   30.2734 H    0  0  0  0  0  0  0  0  0  0  0  0
    1.7297    8.7697   31.2647 H    0  0  0  0  0  0  0  0  0  0  0  0
    2.0617   10.4631   30.8421 H    0  0  0  0  0  0  0  0  0  0  0  0
    3.7453    9.3500   27.8107 H    0  0  0  0  0  0  0  0  0  0  0  0
    5.6937   13.0342   25.8769 H    0  0  0  0  0  0  0  0  0  0  0  0
    9.1735   12.9336   25.1541 H    0  0  0  0  0  0  0  0  0  0  0  0
    7.7995   13.9294   25.4881 H    0  0  0  0  0  0  0  0  0  0  0  0
    9.8538   15.1163   24.9046 H    0  0  0  0  0  0  0  0  0  0  0  0
    9.2956   16.4801   23.9951 H    0  0  0  0  0  0  0  0  0  0  0  0
   11.7636   14.7352   23.4332 H    0  0  0  0  0  0  0  0  0  0  0  0
   11.7609   16.3904   24.0356 H    0  0  0  0  0  0  0  0  0  0  0  0
   12.2916   16.2401   21.5561 H    0  0  0  0  0  0  0  0  0  0  0  0
   10.9001   17.2575   21.9008 H    0  0  0  0  0  0  0  0  0  0  0  0
   10.8281   14.2993   21.0838 H    0  0  0  0  0  0  0  0  0  0  0  0
   10.8189   15.0976   17.7236 H    0  0  0  0  0  0  0  0  0  0  0  0
   10.9655   13.9118   19.0041 H    0  0  0  0  0  0  0  0  0  0  0  0
    8.3754   14.5452   20.8880 H    0  0  0  0  0  0  0  0  0  0  0  0
    8.4248   16.1437   21.5695 H    0  0  0  0  0  0  0  0  0  0  0  0
 17 18  2  0  0  0  0
  6 17  1  0  0  0  0
  5  6  2  0  0  0  0
  4  5  1  0  0  0  0
  3  4  2  0  0  0  0
  2  3  1  0  0  0  0
  1  2  1  0  0  0  0
 31  1  1  0  0  0  0
 32  1  1  0  0  0  0
 33  1  1  0  0  0  0
 34  4  1  0  0  0  0
 35  5  1  0  0  0  0
  7  6  1  0  0  0  0
  8  7  2  0  0  0  0
  9  8  1  0  0  0  0
 36  8  1  0  0  0  0
 10  9  2  0  0  0  0
 11 10  1  0  0  0  0
 37 10  1  0  0  0  0
 12 11  1  0  0  0  0
 16 11  2  0  0  0  0
 13 12  1  0  0  0  0
 14 12  2  0  0  0  0
 15 12  2  0  0  0  0
 38 13  1  0  0  0  0
 39 13  1  0  0  0  0
 40 13  1  0  0  0  0
 41 16  1  0  0  0  0
 42 17  1  0  0  0  0
 19 18  1  0  0  0  0
 20 19  1  0  0  0  0
 43 19  1  0  0  0  0
 44 19  1  0  0  0  0
 21 20  2  0  0  0  0
 22 20  1  0  0  0  0
 23 22  1  0  0  0  0
 24 23  1  0  0  0  0
 45 23  1  0  0  0  0
 46 23  1  0  0  0  0
 25 24  1  0  0  0  0
 47 24  1  0  0  0  0
 48 24  1  0  0  0  0
 26 25  1  0  0  0  0
 49 25  1  0  0  0  0
 50 25  1  0  0  0  0
 27 26  1  0  0  0  0
 30 26  1  0  0  0  0
 51 26  1  0  0  0  0
 28 27  1  0  0  0  0
 29 27  2  0  0  0  0
 52 28  1  0  0  0  0
 53 28  1  0  0  0  0
 54 30  1  0  0  0  0
 55 30  1  0  0  0  0
 16  7  1  0  0  0  0
 18  3  1  0  0  0  0
 30 22  1  0  0  0  0
M  END
>  <FittedScore>
-38.08

$$$$
