A71EV2A-x6948b_best-RMSD
  FITTED

 55 57     0  0  0  0  0  0  0999 V2000
    9.4336    8.6845   23.4128 C    0  0  0  0  0  0  0  0  0  0  0  0
    9.3433   10.3741   24.0789 S    0  0  0  0  0  0  0  0  0  0  0  0
    7.7372   10.5877   24.8624 C    0  0  0  0  0  0  0  0  0  0  0  0
    6.9301    9.4822   25.1660 C    0  0  0  0  0  0  0  0  0  0  0  0
    5.6552    9.6395   25.7231 C    0  0  0  0  0  0  0  0  0  0  0  0
    5.1281   10.9229   26.0105 C    0  0  0  0  0  0  0  0  0  0  0  0
    3.7233   11.1114   26.5373 C    0  0  0  0  0  0  0  0  0  0  0  0
    2.9232   12.2147   26.1203 C    0  0  0  0  0  0  0  0  0  0  0  0
    1.6525   12.4222   26.5649 N    0  0  0  0  0  0  0  0  0  0  0  0
    1.1047   11.5484   27.4426 C    0  0  0  0  0  0  0  0  0  0  0  0
    1.7990   10.4134   27.8961 C    0  0  0  0  0  0  0  0  0  0  0  0
    1.0390    9.2665   29.0238 S    0  0  0  0  0  0  0  0  0  0  0  0
    2.0007    9.4445   30.5058 C    0  0  0  0  0  0  0  0  0  0  0  0
    1.2673    7.9369   28.5298 O    0  0  0  0  0  0  0  0  0  0  0  0
   -0.3023    9.6734   29.3314 O    0  0  0  0  0  0  0  0  0  0  0  0
    3.1145   10.1996   27.4397 C    0  0  0  0  0  0  0  0  0  0  0  0
    5.9699   12.0286   25.7362 C    0  0  0  0  0  0  0  0  0  0  0  0
    7.2541   11.8826   25.1741 C    0  0  0  0  0  0  0  0  0  0  0  0
    8.0660   13.1591   24.8937 C    0  0  0  0  0  0  0  0  0  0  0  0
    8.0905   13.6016   23.4157 C    0  0  0  0  0  0  0  0  0  0  0  0
    7.2898   13.1217   22.6268 O    0  0  0  0  0  0  0  0  0  0  0  0
    8.9564   14.5993   23.0201 N    0  0  0  0  0  0  0  0  0  0  0  0
    9.7996   15.4654   23.9167 C    0  0  0  0  0  0  0  0  0  0  0  0
   11.2803   15.5816   23.4684 C    0  0  0  0  0  0  0  0  0  0  0  0
   11.3980   16.0929   22.0092 C    0  0  0  0  0  0  0  0  0  0  0  0
   10.4927   15.2489   21.0651 C    0  0  0  0  0  0  0  0  0  0  0  0
   10.5044   15.7989   19.6378 C    0  0  0  0  0  0  0  0  0  0  0  0
   10.8830   14.9135   18.6963 N    0  0  0  0  0  0  0  0  0  0  0  0
   10.0217   16.8749   19.3266 O    0  0  0  0  0  0  0  0  0  0  0  0
    9.0320   15.0872   21.6008 C    0  0  0  0  0  0  0  0  0  0  0  0
    9.4790    7.9660   24.2272 H    0  0  0  0  0  0  0  0  0  0  0  0
   10.3344    8.5837   22.8048 H    0  0  0  0  0  0  0  0  0  0  0  0
    8.5644    8.4849   22.7790 H    0  0  0  0  0  0  0  0  0  0  0  0
    7.2645    8.4711   24.9568 H    0  0  0  0  0  0  0  0  0  0  0  0
    5.0637    8.7424   25.8965 H    0  0  0  0  0  0  0  0  0  0  0  0
    3.3196   12.9281   25.4001 H    0  0  0  0  0  0  0  0  0  0  0  0
    0.0919   11.7432   27.7870 H    0  0  0  0  0  0  0  0  0  0  0  0
    1.5773    8.8078   31.2845 H    0  0  0  0  0  0  0  0  0  0  0  0
    1.9783   10.4846   30.8326 H    0  0  0  0  0  0  0  0  0  0  0  0
    3.0312    9.1410   30.3149 H    0  0  0  0  0  0  0  0  0  0  0  0
    3.6598    9.3279   27.7952 H    0  0  0  0  0  0  0  0  0  0  0  0
    5.6262   13.0363   25.9595 H    0  0  0  0  0  0  0  0  0  0  0  0
    9.0826   12.9849   25.2690 H    0  0  0  0  0  0  0  0  0  0  0  0
    7.6826   13.9864   25.5065 H    0  0  0  0  0  0  0  0  0  0  0  0
    9.8134   15.1316   24.9512 H    0  0  0  0  0  0  0  0  0  0  0  0
    9.3513   16.4670   23.9537 H    0  0  0  0  0  0  0  0  0  0  0  0
   11.7632   14.6045   23.5607 H    0  0  0  0  0  0  0  0  0  0  0  0
   11.8090   16.2631   24.1356 H    0  0  0  0  0  0  0  0  0  0  0  0
   12.4393   16.0062   21.6838 H    0  0  0  0  0  0  0  0  0  0  0  0
   11.1369   17.1531   21.9609 H    0  0  0  0  0  0  0  0  0  0  0  0
   10.9254   14.2376   21.0540 H    0  0  0  0  0  0  0  0  0  0  0  0
   11.0603   13.9419   18.9534 H    0  0  0  0  0  0  0  0  0  0  0  0
   10.8797   15.1991   17.7257 H    0  0  0  0  0  0  0  0  0  0  0  0
    8.5188   14.4166   20.9056 H    0  0  0  0  0  0  0  0  0  0  0  0
    8.4988   16.0380   21.5330 H    0  0  0  0  0  0  0  0  0  0  0  0
 17 18  2  0  0  0  0
  6 17  1  0  0  0  0
  5  6  2  0  0  0  0
  4  5  1  0  0  0  0
  3  4  2  0  0  0  0
  2  3  1  0  0  0  0
  1  2  1  0  0  0  0
 31  1  1  0  0  0  0
 32  1  1  0  0  0  0
 33  1  1  0  0  0  0
 34  4  1  0  0  0  0
 35  5  1  0  0  0  0
  7  6  1  0  0  0  0
  8  7  2  0  0  0  0
  9  8  1  0  0  0  0
 36  8  1  0  0  0  0
 10  9  2  0  0  0  0
 11 10  1  0  0  0  0
 37 10  1  0  0  0  0
 12 11  1  0  0  0  0
 16 11  2  0  0  0  0
 13 12  1  0  0  0  0
 14 12  2  0  0  0  0
 15 12  2  0  0  0  0
 38 13  1  0  0  0  0
 39 13  1  0  0  0  0
 40 13  1  0  0  0  0
 41 16  1  0  0  0  0
 42 17  1  0  0  0  0
 19 18  1  0  0  0  0
 20 19  1  0  0  0  0
 43 19  1  0  0  0  0
 44 19  1  0  0  0  0
 21 20  2  0  0  0  0
 22 20  1  0  0  0  0
 23 22  1  0  0  0  0
 24 23  1  0  0  0  0
 45 23  1  0  0  0  0
 46 23  1  0  0  0  0
 25 24  1  0  0  0  0
 47 24  1  0  0  0  0
 48 24  1  0  0  0  0
 26 25  1  0  0  0  0
 49 25  1  0  0  0  0
 50 25  1  0  0  0  0
 27 26  1  0  0  0  0
 30 26  1  0  0  0  0
 51 26  1  0  0  0  0
 28 27  1  0  0  0  0
 29 27  2  0  0  0  0
 52 28  1  0  0  0  0
 53 28  1  0  0  0  0
 54 30  1  0  0  0  0
 55 30  1  0  0  0  0
 16  7  1  0  0  0  0
 18  3  1  0  0  0  0
 30 22  1  0  0  0  0
M  END
>  <FittedScore>
-37.61

$$$$
