A71EV2A-x7026b_lowest-energy
  FITTED

 53 55     0  0  0  0  0  0  0999 V2000
    9.6739    8.5678   23.2282 C    0  0  0  0  0  0  0  0  0  0  0  0
    9.5842   10.2970   23.7837 S    0  0  0  0  0  0  0  0  0  0  0  0
    8.1656   10.4075   24.8694 C    0  0  0  0  0  0  0  0  0  0  0  0
    7.4775    9.2591   25.1231 N    0  0  0  0  0  0  0  0  0  0  0  0
    6.3860    9.3260   25.9256 C    0  0  0  0  0  0  0  0  0  0  0  0
    5.9117   10.4638   26.4874 N    0  0  0  0  0  0  0  0  0  0  0  0
    6.5851   11.6272   26.2518 C    0  0  0  0  0  0  0  0  0  0  0  0
    6.0537   12.7659   26.8243 N    0  0  0  0  0  0  0  0  0  0  0  0
    5.6652   12.8554   28.2414 C    0  0  0  0  0  0  0  0  0  0  0  0
    4.4308   13.7777   28.2666 C    0  0  0  0  0  0  0  0  0  0  0  0
    4.1048   14.1290   26.7910 C    0  0  0  0  0  0  0  0  0  0  0  0
    2.8718   13.3495   26.2527 C    0  0  0  0  0  0  0  0  0  0  0  0
    5.3971   13.7969   26.0139 C    0  0  0  0  0  0  0  0  0  0  0  0
    7.7546   11.6462   25.4373 C    0  0  0  0  0  0  0  0  0  0  0  0
    8.5324   12.9473   25.1432 C    0  0  0  0  0  0  0  0  0  0  0  0
    8.2306   13.5626   23.7699 C    0  0  0  0  0  0  0  0  0  0  0  0
    7.4486   12.9978   23.0202 O    0  0  0  0  0  0  0  0  0  0  0  0
    8.9298   14.6824   23.3665 N    0  0  0  0  0  0  0  0  0  0  0  0
    9.9663   15.4356   24.1639 C    0  0  0  0  0  0  0  0  0  0  0  0
   11.3780   15.4100   23.5104 C    0  0  0  0  0  0  0  0  0  0  0  0
   11.3349   15.8911   22.0377 C    0  0  0  0  0  0  0  0  0  0  0  0
   10.2353   15.1137   21.2569 C    0  0  0  0  0  0  0  0  0  0  0  0
   10.1873   15.5741   19.8128 C    0  0  0  0  0  0  0  0  0  0  0  0
   10.7229   14.7334   18.9069 N    0  0  0  0  0  0  0  0  0  0  0  0
    9.6784   16.6228   19.4637 O    0  0  0  0  0  0  0  0  0  0  0  0
    8.8556   15.2349   21.9761 C    0  0  0  0  0  0  0  0  0  0  0  0
   10.5621    8.4308   22.6077 H    0  0  0  0  0  0  0  0  0  0  0  0
    8.7876    8.3083   22.6414 H    0  0  0  0  0  0  0  0  0  0  0  0
    9.7460    7.9038   24.0884 H    0  0  0  0  0  0  0  0  0  0  0  0
    5.8501    8.4017   26.1265 H    0  0  0  0  0  0  0  0  0  0  0  0
    6.4761   13.2786   28.8399 H    0  0  0  0  0  0  0  0  0  0  0  0
    5.4081   11.8925   28.6937 H    0  0  0  0  0  0  0  0  0  0  0  0
    4.6577   14.6896   28.8275 H    0  0  0  0  0  0  0  0  0  0  0  0
    3.5966   13.2858   28.7776 H    0  0  0  0  0  0  0  0  0  0  0  0
    3.8982   15.1998   26.7062 H    0  0  0  0  0  0  0  0  0  0  0  0
    2.7397   13.5340   25.1828 H    0  0  0  0  0  0  0  0  0  0  0  0
    1.9542   13.6661   26.7558 H    0  0  0  0  0  0  0  0  0  0  0  0
    2.9831   12.2720   26.4054 H    0  0  0  0  0  0  0  0  0  0  0  0
    6.0255   14.6893   25.9364 H    0  0  0  0  0  0  0  0  0  0  0  0
    5.1938   13.4667   24.9894 H    0  0  0  0  0  0  0  0  0  0  0  0
    9.6017   12.7468   25.2266 H    0  0  0  0  0  0  0  0  0  0  0  0
    8.3415   13.6924   25.9160 H    0  0  0  0  0  0  0  0  0  0  0  0
   10.0783   15.0782   25.1855 H    0  0  0  0  0  0  0  0  0  0  0  0
    9.6433   16.4760   24.2746 H    0  0  0  0  0  0  0  0  0  0  0  0
   11.7820   14.3936   23.5492 H    0  0  0  0  0  0  0  0  0  0  0  0
   12.0614   16.0454   24.0783 H    0  0  0  0  0  0  0  0  0  0  0  0
   12.3085   15.7272   21.5683 H    0  0  0  0  0  0  0  0  0  0  0  0
   11.1407   16.9703   22.0025 H    0  0  0  0  0  0  0  0  0  0  0  0
   10.5032   14.0492   21.2759 H    0  0  0  0  0  0  0  0  0  0  0  0
   10.6469   14.9528   17.9215 H    0  0  0  0  0  0  0  0  0  0  0  0
   11.0185   13.8005   19.1977 H    0  0  0  0  0  0  0  0  0  0  0  0
    8.0999   14.7457   21.3553 H    0  0  0  0  0  0  0  0  0  0  0  0
    8.5378   16.2827   22.0224 H    0  0  0  0  0  0  0  0  0  0  0  0
 15 16  1  0  0  0  0
 14 15  1  0  0  0  0
  7 14  2  0  0  0  0
  6  7  1  0  0  0  0
  5  6  2  0  0  0  0
  4  5  1  0  0  0  0
  3  4  2  0  0  0  0
  2  3  1  0  0  0  0
  1  2  1  0  0  0  0
 27  1  1  0  0  0  0
 28  1  1  0  0  0  0
 29  1  1  0  0  0  0
 30  5  1  0  0  0  0
  8  7  1  0  0  0  0
  9  8  1  0  0  0  0
 10  9  1  0  0  0  0
 31  9  1  0  0  0  0
 32  9  1  0  0  0  0
 11 10  1  0  0  0  0
 33 10  1  0  0  0  0
 34 10  1  0  0  0  0
 12 11  1  0  0  0  0
 13 11  1  0  0  0  0
 35 11  1  0  0  0  0
 36 12  1  0  0  0  0
 37 12  1  0  0  0  0
 38 12  1  0  0  0  0
 39 13  1  0  0  0  0
 40 13  1  0  0  0  0
 41 15  1  0  0  0  0
 42 15  1  0  0  0  0
 17 16  2  0  0  0  0
 18 16  1  0  0  0  0
 19 18  1  0  0  0  0
 20 19  1  0  0  0  0
 43 19  1  0  0  0  0
 44 19  1  0  0  0  0
 21 20  1  0  0  0  0
 45 20  1  0  0  0  0
 46 20  1  0  0  0  0
 22 21  1  0  0  0  0
 47 21  1  0  0  0  0
 48 21  1  0  0  0  0
 23 22  1  0  0  0  0
 26 22  1  0  0  0  0
 49 22  1  0  0  0  0
 24 23  1  0  0  0  0
 25 23  2  0  0  0  0
 50 24  1  0  0  0  0
 51 24  1  0  0  0  0
 52 26  1  0  0  0  0
 53 26  1  0  0  0  0
 13  8  1  0  0  0  0
 14  3  1  0  0  0  0
 26 18  1  0  0  0  0
M  END
>  <FittedScore>
-35.00

$$$$
