A71EV2A-x4464a_best-RMSD
  FITTED

 40 41     0  0  0  0  0  0  0999 V2000
    9.8235   16.6665   19.2122 O    0  0  0  0  0  0  0  0  0  0  0  0
   10.3446   15.6241   19.5678 C    0  0  0  0  0  0  0  0  0  0  0  0
   10.7971   14.7316   18.6673 N    0  0  0  0  0  0  0  0  0  0  0  0
   10.4403   15.1632   21.0167 C    0  0  0  0  0  0  0  0  0  0  0  0
   11.5750   15.9221   21.7644 C    0  0  0  0  0  0  0  0  0  0  0  0
   11.6404   15.4723   23.2471 C    0  0  0  0  0  0  0  0  0  0  0  0
   10.2421   15.4881   23.9283 C    0  0  0  0  0  0  0  0  0  0  0  0
    9.0806   15.2128   21.7872 C    0  0  0  0  0  0  0  0  0  0  0  0
    9.2212   14.6711   23.1839 N    0  0  0  0  0  0  0  0  0  0  0  0
    8.5539   13.5462   23.6300 C    0  0  0  0  0  0  0  0  0  0  0  0
    7.7527   12.9703   22.9077 O    0  0  0  0  0  0  0  0  0  0  0  0
    8.8974   12.9638   25.0143 C    0  0  0  0  0  0  0  0  0  0  0  0
    7.9582   11.8294   25.4696 C    0  0  0  0  0  0  0  0  0  0  0  0
    6.8141   12.0903   26.2773 C    0  0  0  0  0  0  0  0  0  0  0  0
    6.3751   13.5008   26.6833 C    0  0  0  0  0  0  0  0  0  0  0  0
    8.1622   10.4820   25.0479 C    0  0  0  0  0  0  0  0  0  0  0  0
    9.3060   10.0646   24.1165 C    0  0  0  0  0  0  0  0  0  0  0  0
    7.3148    9.4948   25.4545 N    0  0  0  0  0  0  0  0  0  0  0  0
    6.2928    9.8130   26.2883 C    0  0  0  0  0  0  0  0  0  0  0  0
    6.0143   11.0735   26.7053 N    0  0  0  0  0  0  0  0  0  0  0  0
   10.7551   14.9425   17.6786 H    0  0  0  0  0  0  0  0  0  0  0  0
   11.0487   13.7906   18.9747 H    0  0  0  0  0  0  0  0  0  0  0  0
   10.7310   14.1035   21.0265 H    0  0  0  0  0  0  0  0  0  0  0  0
   12.5336   15.7137   21.2832 H    0  0  0  0  0  0  0  0  0  0  0  0
   11.4112   17.0030   21.7094 H    0  0  0  0  0  0  0  0  0  0  0  0
   12.0683   14.4628   23.3032 H    0  0  0  0  0  0  0  0  0  0  0  0
   12.3258   16.1297   23.7926 H    0  0  0  0  0  0  0  0  0  0  0  0
   10.3865   15.1823   24.9586 H    0  0  0  0  0  0  0  0  0  0  0  0
    9.8960   16.5217   23.9954 H    0  0  0  0  0  0  0  0  0  0  0  0
    8.3304   14.6731   21.1966 H    0  0  0  0  0  0  0  0  0  0  0  0
    8.7140   16.2473   21.8281 H    0  0  0  0  0  0  0  0  0  0  0  0
    9.9368   12.6272   25.0122 H    0  0  0  0  0  0  0  0  0  0  0  0
    8.8859   13.7523   25.7651 H    0  0  0  0  0  0  0  0  0  0  0  0
    5.3785   13.5156   27.1346 H    0  0  0  0  0  0  0  0  0  0  0  0
    6.3329   14.1553   25.8087 H    0  0  0  0  0  0  0  0  0  0  0  0
    7.0704   13.9353   27.4047 H    0  0  0  0  0  0  0  0  0  0  0  0
    9.2454   10.5837   23.1582 H    0  0  0  0  0  0  0  0  0  0  0  0
    9.2938    8.9940   23.8991 H    0  0  0  0  0  0  0  0  0  0  0  0
   10.2738   10.2825   24.5693 H    0  0  0  0  0  0  0  0  0  0  0  0
    5.6529    9.0042   26.6415 H    0  0  0  0  0  0  0  0  0  0  0  0
  9 10  1  0  0  0  0
  7  9  1  0  0  0  0
  6  7  1  0  0  0  0
  5  6  1  0  0  0  0
  4  5  1  0  0  0  0
  2  4  1  0  0  0  0
  1  2  2  0  0  0  0
  3  2  1  0  0  0  0
 21  3  1  0  0  0  0
 22  3  1  0  0  0  0
 23  4  1  0  0  0  0
 24  5  1  0  0  0  0
 25  5  1  0  0  0  0
 26  6  1  0  0  0  0
 27  6  1  0  0  0  0
 28  7  1  0  0  0  0
 29  7  1  0  0  0  0
  8  4  1  0  0  0  0
 30  8  1  0  0  0  0
 31  8  1  0  0  0  0
 11 10  2  0  0  0  0
 12 10  1  0  0  0  0
 32 12  1  0  0  0  0
 33 12  1  0  0  0  0
 13 12  1  0  0  0  0
 14 13  1  0  0  0  0
 20 14  2  0  0  0  0
 15 14  1  0  0  0  0
 34 15  1  0  0  0  0
 35 15  1  0  0  0  0
 36 15  1  0  0  0  0
 16 13  2  0  0  0  0
 17 16  1  0  0  0  0
 37 17  1  0  0  0  0
 38 17  1  0  0  0  0
 39 17  1  0  0  0  0
 18 16  1  0  0  0  0
 19 18  2  0  0  0  0
 40 19  1  0  0  0  0
  9  8  1  0  0  0  0
 20 19  1  0  0  0  0
M  END
>  <FittedScore>
-29.72

$$$$
