A71EV2A-x4464a_lowest-energy
  FITTED

 40 41     0  0  0  0  0  0  0999 V2000
    9.8782   16.6813   19.1941 O    0  0  0  0  0  0  0  0  0  0  0  0
   10.4200   15.6637   19.5734 C    0  0  0  0  0  0  0  0  0  0  0  0
   10.8778   14.7662   18.6834 N    0  0  0  0  0  0  0  0  0  0  0  0
   10.4820   15.2222   21.0239 C    0  0  0  0  0  0  0  0  0  0  0  0
   11.4466   16.1330   21.8249 C    0  0  0  0  0  0  0  0  0  0  0  0
   11.4949   15.6655   23.3005 C    0  0  0  0  0  0  0  0  0  0  0  0
   10.0718   15.5220   23.9064 C    0  0  0  0  0  0  0  0  0  0  0  0
    9.0681   15.1536   21.6847 C    0  0  0  0  0  0  0  0  0  0  0  0
    9.1344   14.6532   23.0947 N    0  0  0  0  0  0  0  0  0  0  0  0
    8.4174   13.5566   23.5423 C    0  0  0  0  0  0  0  0  0  0  0  0
    7.5995   12.9991   22.8257 O    0  0  0  0  0  0  0  0  0  0  0  0
    8.7192   12.9876   24.9397 C    0  0  0  0  0  0  0  0  0  0  0  0
    7.7951   11.8326   25.3815 C    0  0  0  0  0  0  0  0  0  0  0  0
    8.0642   10.4840   25.0042 C    0  0  0  0  0  0  0  0  0  0  0  0
    9.2358   10.0855   24.0970 C    0  0  0  0  0  0  0  0  0  0  0  0
    6.6280   12.0652   26.1706 C    0  0  0  0  0  0  0  0  0  0  0  0
    6.1313   13.4632   26.5452 C    0  0  0  0  0  0  0  0  0  0  0  0
    5.8620   11.0292   26.6212 N    0  0  0  0  0  0  0  0  0  0  0  0
    6.2068    9.7722   26.2421 C    0  0  0  0  0  0  0  0  0  0  0  0
    7.2580    9.4720   25.4361 N    0  0  0  0  0  0  0  0  0  0  0  0
   11.1099   13.8177   18.9811 H    0  0  0  0  0  0  0  0  0  0  0  0
   10.8637   15.0000   17.6957 H    0  0  0  0  0  0  0  0  0  0  0  0
   10.8929   14.2039   21.0695 H    0  0  0  0  0  0  0  0  0  0  0  0
   12.4498   16.0955   21.3930 H    0  0  0  0  0  0  0  0  0  0  0  0
   11.1262   17.1805   21.7832 H    0  0  0  0  0  0  0  0  0  0  0  0
   12.0196   14.7078   23.3617 H    0  0  0  0  0  0  0  0  0  0  0  0
   12.0726   16.3854   23.8856 H    0  0  0  0  0  0  0  0  0  0  0  0
   10.2092   15.1825   24.9319 H    0  0  0  0  0  0  0  0  0  0  0  0
    9.6225   16.5194   24.0012 H    0  0  0  0  0  0  0  0  0  0  0  0
    8.4378   14.5334   21.0426 H    0  0  0  0  0  0  0  0  0  0  0  0
    8.5881   16.1386   21.6825 H    0  0  0  0  0  0  0  0  0  0  0  0
    9.7609   12.6657   24.9751 H    0  0  0  0  0  0  0  0  0  0  0  0
    8.6626   13.7758   25.6870 H    0  0  0  0  0  0  0  0  0  0  0  0
    9.2323    9.0171   23.8644 H    0  0  0  0  0  0  0  0  0  0  0  0
   10.1893   10.3084   24.5775 H    0  0  0  0  0  0  0  0  0  0  0  0
    9.1957   10.6163   23.1425 H    0  0  0  0  0  0  0  0  0  0  0  0
    6.1115   14.1133   25.6664 H    0  0  0  0  0  0  0  0  0  0  0  0
    6.7810   13.9101   27.2991 H    0  0  0  0  0  0  0  0  0  0  0  0
    5.1139   13.4462   26.9491 H    0  0  0  0  0  0  0  0  0  0  0  0
    5.5846    8.9503   26.5860 H    0  0  0  0  0  0  0  0  0  0  0  0
  9 10  1  0  0  0  0
  7  9  1  0  0  0  0
  6  7  1  0  0  0  0
  5  6  1  0  0  0  0
  4  5  1  0  0  0  0
  2  4  1  0  0  0  0
  1  2  2  0  0  0  0
  3  2  1  0  0  0  0
 21  3  1  0  0  0  0
 22  3  1  0  0  0  0
 23  4  1  0  0  0  0
 24  5  1  0  0  0  0
 25  5  1  0  0  0  0
 26  6  1  0  0  0  0
 27  6  1  0  0  0  0
 28  7  1  0  0  0  0
 29  7  1  0  0  0  0
  8  4  1  0  0  0  0
 30  8  1  0  0  0  0
 31  8  1  0  0  0  0
 11 10  2  0  0  0  0
 12 10  1  0  0  0  0
 32 12  1  0  0  0  0
 33 12  1  0  0  0  0
 13 12  1  0  0  0  0
 14 13  1  0  0  0  0
 20 14  2  0  0  0  0
 15 14  1  0  0  0  0
 34 15  1  0  0  0  0
 35 15  1  0  0  0  0
 36 15  1  0  0  0  0
 16 13  2  0  0  0  0
 17 16  1  0  0  0  0
 37 17  1  0  0  0  0
 38 17  1  0  0  0  0
 39 17  1  0  0  0  0
 18 16  1  0  0  0  0
 19 18  2  0  0  0  0
 40 19  1  0  0  0  0
  9  8  1  0  0  0  0
 20 19  1  0  0  0  0
M  END
>  <FittedScore>
-28.83

$$$$
