A71EV2A-x4020a_lowest-energy
  FITTED

 39 40     0  0  0  0  0  0  0999 V2000
    9.7160   16.9235   19.2147 O    0  0  0  0  0  0  0  0  0  0  0  0
   10.1102   15.8565   19.6461 C    0  0  0  0  0  0  0  0  0  0  0  0
   10.5844   14.9143   18.8095 N    0  0  0  0  0  0  0  0  0  0  0  0
    9.9903   15.4353   21.1111 C    0  0  0  0  0  0  0  0  0  0  0  0
   10.8923   16.3225   22.0222 C    0  0  0  0  0  0  0  0  0  0  0  0
   10.6771   15.9950   23.5236 C    0  0  0  0  0  0  0  0  0  0  0  0
    9.1646   16.0021   23.8803 C    0  0  0  0  0  0  0  0  0  0  0  0
    8.4996   15.4179   21.5848 C    0  0  0  0  0  0  0  0  0  0  0  0
    8.3665   15.0572   23.0340 N    0  0  0  0  0  0  0  0  0  0  0  0
    7.6323   13.9796   23.4811 C    0  0  0  0  0  0  0  0  0  0  0  0
    6.8627   13.3835   22.7375 O    0  0  0  0  0  0  0  0  0  0  0  0
    7.8741   13.4546   24.9069 C    0  0  0  0  0  0  0  0  0  0  0  0
    7.6809   11.9510   25.0092 C    0  0  0  0  0  0  0  0  0  0  0  0
    6.6133   11.3986   25.7401 C    0  0  0  0  0  0  0  0  0  0  0  0
    6.4035   10.0139   25.7328 C    0  0  0  0  0  0  0  0  0  0  0  0
    7.2492    9.1841   24.9850 C    0  0  0  0  0  0  0  0  0  0  0  0
    8.5602   11.1077   24.3099 C    0  0  0  0  0  0  0  0  0  0  0  0
    8.3326    9.7249   24.2734 C    0  0  0  0  0  0  0  0  0  0  0  0
    9.2643    8.8443   23.4688 C    0  0  0  0  0  0  0  0  0  0  0  0
   10.5895   15.0718   17.8104 H    0  0  0  0  0  0  0  0  0  0  0  0
   10.7952   13.9808   19.1461 H    0  0  0  0  0  0  0  0  0  0  0  0
   10.3566   14.4081   21.2286 H    0  0  0  0  0  0  0  0  0  0  0  0
   11.9412   16.1670   21.7612 H    0  0  0  0  0  0  0  0  0  0  0  0
   10.6853   17.3841   21.8523 H    0  0  0  0  0  0  0  0  0  0  0  0
   11.1122   15.0177   23.7503 H    0  0  0  0  0  0  0  0  0  0  0  0
   11.2058   16.7296   24.1363 H    0  0  0  0  0  0  0  0  0  0  0  0
    9.0493   15.8347   24.9509 H    0  0  0  0  0  0  0  0  0  0  0  0
    8.7727   17.0139   23.7340 H    0  0  0  0  0  0  0  0  0  0  0  0
    7.9563   14.7245   20.9369 H    0  0  0  0  0  0  0  0  0  0  0  0
    8.0296   16.3930   21.4182 H    0  0  0  0  0  0  0  0  0  0  0  0
    8.8966   13.6442   25.2395 H    0  0  0  0  0  0  0  0  0  0  0  0
    7.2207   13.9890   25.5996 H    0  0  0  0  0  0  0  0  0  0  0  0
    5.9362   12.0367   26.3020 H    0  0  0  0  0  0  0  0  0  0  0  0
    5.5762    9.5838   26.2936 H    0  0  0  0  0  0  0  0  0  0  0  0
    7.0652    8.1102   24.9766 H    0  0  0  0  0  0  0  0  0  0  0  0
    9.3948   11.5353   23.7562 H    0  0  0  0  0  0  0  0  0  0  0  0
   10.0567    8.4136   24.0860 H    0  0  0  0  0  0  0  0  0  0  0  0
    9.7388    9.4165   22.6708 H    0  0  0  0  0  0  0  0  0  0  0  0
    8.7096    8.0200   23.0091 H    0  0  0  0  0  0  0  0  0  0  0  0
  9 10  1  0  0  0  0
  7  9  1  0  0  0  0
  6  7  1  0  0  0  0
  5  6  1  0  0  0  0
  4  5  1  0  0  0  0
  2  4  1  0  0  0  0
  1  2  2  0  0  0  0
  3  2  1  0  0  0  0
 20  3  1  0  0  0  0
 21  3  1  0  0  0  0
 22  4  1  0  0  0  0
 23  5  1  0  0  0  0
 24  5  1  0  0  0  0
 25  6  1  0  0  0  0
 26  6  1  0  0  0  0
 27  7  1  0  0  0  0
 28  7  1  0  0  0  0
  8  4  1  0  0  0  0
 29  8  1  0  0  0  0
 30  8  1  0  0  0  0
 11 10  2  0  0  0  0
 12 10  1  0  0  0  0
 31 12  1  0  0  0  0
 32 12  1  0  0  0  0
 13 12  1  0  0  0  0
 14 13  1  0  0  0  0
 33 14  1  0  0  0  0
 15 14  2  0  0  0  0
 34 15  1  0  0  0  0
 16 15  1  0  0  0  0
 35 16  1  0  0  0  0
 17 13  2  0  0  0  0
 36 17  1  0  0  0  0
 18 16  2  0  0  0  0
 19 18  1  0  0  0  0
 37 19  1  0  0  0  0
 38 19  1  0  0  0  0
 39 19  1  0  0  0  0
  9  8  1  0  0  0  0
 18 17  1  0  0  0  0
M  END
>  <FittedScore>
-36.81

$$$$
