A71EV2A-x5231a_best-RMSD
  FITTED

 44 45     0  0  0  0  0  0  0999 V2000
    9.6223   16.6044   19.1974 O    0  0  0  0  0  0  0  0  0  0  0  0
   10.1907   15.5994   19.5832 C    0  0  0  0  0  0  0  0  0  0  0  0
   10.6939   14.7224   18.6936 N    0  0  0  0  0  0  0  0  0  0  0  0
   10.1624   15.1289   21.0336 C    0  0  0  0  0  0  0  0  0  0  0  0
   11.0201   16.0313   21.9593 C    0  0  0  0  0  0  0  0  0  0  0  0
   10.9966   15.4695   23.4011 C    0  0  0  0  0  0  0  0  0  0  0  0
    9.5497   15.2615   23.9334 C    0  0  0  0  0  0  0  0  0  0  0  0
    8.7103   15.0519   21.5738 C    0  0  0  0  0  0  0  0  0  0  0  0
    8.6097   14.5597   22.9901 N    0  0  0  0  0  0  0  0  0  0  0  0
    7.6166   13.7082   23.3969 C    0  0  0  0  0  0  0  0  0  0  0  0
    6.8565   13.1966   22.5940 O    0  0  0  0  0  0  0  0  0  0  0  0
    7.4716   13.5284   24.7434 O    0  0  0  0  0  0  0  0  0  0  0  0
    6.4056   12.7397   25.3544 C    0  0  0  0  0  0  0  0  0  0  0  0
    7.0122   11.6404   26.2814 C    0  0  0  0  0  0  0  0  0  0  0  0
    7.9445   10.3611   25.3551 S    0  0  0  0  0  0  0  0  0  0  0  0
    9.6419   11.0074   25.2734 C    0  0  0  0  0  0  0  0  0  0  0  0
    5.5036   13.7480   26.1180 C    0  0  0  0  0  0  0  0  0  0  0  0
    4.4103   13.0374   26.9586 C    0  0  0  0  0  0  0  0  0  0  0  0
    4.9989   11.9333   27.8786 C    0  0  0  0  0  0  0  0  0  0  0  0
    5.8929   10.9333   27.0980 C    0  0  0  0  0  0  0  0  0  0  0  0
   10.8966   13.7656   18.9685 H    0  0  0  0  0  0  0  0  0  0  0  0
   10.7711   14.9717   17.7153 H    0  0  0  0  0  0  0  0  0  0  0  0
   10.5736   14.1112   21.0931 H    0  0  0  0  0  0  0  0  0  0  0  0
   12.0506   16.0743   21.6010 H    0  0  0  0  0  0  0  0  0  0  0  0
   10.6234   17.0521   21.9602 H    0  0  0  0  0  0  0  0  0  0  0  0
   11.5312   14.5126   23.4354 H    0  0  0  0  0  0  0  0  0  0  0  0
   11.5344   16.1513   24.0677 H    0  0  0  0  0  0  0  0  0  0  0  0
    9.6596   14.7052   24.8679 H    0  0  0  0  0  0  0  0  0  0  0  0
    9.1141   16.2271   24.2098 H    0  0  0  0  0  0  0  0  0  0  0  0
    8.1524   14.4221   20.8763 H    0  0  0  0  0  0  0  0  0  0  0  0
    8.2347   16.0364   21.5200 H    0  0  0  0  0  0  0  0  0  0  0  0
    5.7838   12.2383   24.6061 H    0  0  0  0  0  0  0  0  0  0  0  0
    7.7046   12.1062   26.9899 H    0  0  0  0  0  0  0  0  0  0  0  0
    9.6794   11.9353   24.7041 H    0  0  0  0  0  0  0  0  0  0  0  0
   10.2698   10.2672   24.7794 H    0  0  0  0  0  0  0  0  0  0  0  0
   10.0285   11.1864   26.2773 H    0  0  0  0  0  0  0  0  0  0  0  0
    6.1163   14.3762   26.7694 H    0  0  0  0  0  0  0  0  0  0  0  0
    5.0248   14.4176   25.3984 H    0  0  0  0  0  0  0  0  0  0  0  0
    3.8887   13.7795   27.5713 H    0  0  0  0  0  0  0  0  0  0  0  0
    3.6654   12.6030   26.2858 H    0  0  0  0  0  0  0  0  0  0  0  0
    5.5818   12.3916   28.6818 H    0  0  0  0  0  0  0  0  0  0  0  0
    4.1819   11.3840   28.3549 H    0  0  0  0  0  0  0  0  0  0  0  0
    6.3426   10.2330   27.8078 H    0  0  0  0  0  0  0  0  0  0  0  0
    5.2644   10.3408   26.4265 H    0  0  0  0  0  0  0  0  0  0  0  0
  9 10  1  0  0  0  0
  7  9  1  0  0  0  0
  6  7  1  0  0  0  0
  5  6  1  0  0  0  0
  4  5  1  0  0  0  0
  2  4  1  0  0  0  0
  1  2  2  0  0  0  0
  3  2  1  0  0  0  0
 21  3  1  0  0  0  0
 22  3  1  0  0  0  0
 23  4  1  0  0  0  0
 24  5  1  0  0  0  0
 25  5  1  0  0  0  0
 26  6  1  0  0  0  0
 27  6  1  0  0  0  0
 28  7  1  0  0  0  0
 29  7  1  0  0  0  0
  8  4  1  0  0  0  0
 30  8  1  0  0  0  0
 31  8  1  0  0  0  0
 11 10  2  0  0  0  0
 12 10  1  0  0  0  0
 13 12  1  0  0  0  0
 32 13  1  0  0  0  0
 14 13  1  0  0  0  0
 15 14  1  0  0  0  0
 20 14  1  0  0  0  0
 33 14  1  0  0  0  0
 16 15  1  0  0  0  0
 34 16  1  0  0  0  0
 35 16  1  0  0  0  0
 36 16  1  0  0  0  0
 17 13  1  0  0  0  0
 37 17  1  0  0  0  0
 38 17  1  0  0  0  0
 18 17  1  0  0  0  0
 39 18  1  0  0  0  0
 40 18  1  0  0  0  0
 19 18  1  0  0  0  0
 41 19  1  0  0  0  0
 42 19  1  0  0  0  0
 43 20  1  0  0  0  0
 44 20  1  0  0  0  0
  9  8  1  0  0  0  0
 20 19  1  0  0  0  0
M  END
>  <FittedScore>
-29.57

$$$$
