A71EV2A-x5231a_lowest-energy
  FITTED

 44 45     0  0  0  0  0  0  0999 V2000
    9.5709   16.6096   19.2346 O    0  0  0  0  0  0  0  0  0  0  0  0
   10.1507   15.6113   19.6212 C    0  0  0  0  0  0  0  0  0  0  0  0
   10.7319   14.7811   18.7344 N    0  0  0  0  0  0  0  0  0  0  0  0
   10.0817   15.1042   21.0542 C    0  0  0  0  0  0  0  0  0  0  0  0
   11.0832   15.8455   21.9840 C    0  0  0  0  0  0  0  0  0  0  0  0
   10.9957   15.2561   23.4169 C    0  0  0  0  0  0  0  0  0  0  0  0
    9.5340   15.2260   23.9513 C    0  0  0  0  0  0  0  0  0  0  0  0
    8.6425   15.2119   21.6348 C    0  0  0  0  0  0  0  0  0  0  0  0
    8.5416   14.6164   23.0006 N    0  0  0  0  0  0  0  0  0  0  0  0
    7.5952   13.6859   23.3350 C    0  0  0  0  0  0  0  0  0  0  0  0
    6.8159   13.2335   22.5127 O    0  0  0  0  0  0  0  0  0  0  0  0
    7.5844   13.2841   24.6346 O    0  0  0  0  0  0  0  0  0  0  0  0
    6.5537   12.4419   25.2203 C    0  0  0  0  0  0  0  0  0  0  0  0
    7.2030   11.3744   26.1557 C    0  0  0  0  0  0  0  0  0  0  0  0
    8.2425   10.1675   25.2461 S    0  0  0  0  0  0  0  0  0  0  0  0
    9.8768   10.9745   25.1901 C    0  0  0  0  0  0  0  0  0  0  0  0
    5.5740   13.3956   25.9631 C    0  0  0  0  0  0  0  0  0  0  0  0
    4.5147   12.6236   26.7904 C    0  0  0  0  0  0  0  0  0  0  0  0
    5.1530   11.5555   27.7201 C    0  0  0  0  0  0  0  0  0  0  0  0
    6.1079   10.6059   26.9483 C    0  0  0  0  0  0  0  0  0  0  0  0
   10.7972   15.0581   17.7631 H    0  0  0  0  0  0  0  0  0  0  0  0
   10.9878   13.8309   19.0098 H    0  0  0  0  0  0  0  0  0  0  0  0
   10.3470   14.0383   21.0674 H    0  0  0  0  0  0  0  0  0  0  0  0
   12.1020   15.7466   21.6004 H    0  0  0  0  0  0  0  0  0  0  0  0
   10.8547   16.9153   22.0145 H    0  0  0  0  0  0  0  0  0  0  0  0
   11.4012   14.2397   23.4149 H    0  0  0  0  0  0  0  0  0  0  0  0
   11.6219   15.8446   24.0919 H    0  0  0  0  0  0  0  0  0  0  0  0
    9.5647   14.7066   24.9102 H    0  0  0  0  0  0  0  0  0  0  0  0
    9.2115   16.2470   24.1810 H    0  0  0  0  0  0  0  0  0  0  0  0
    7.9602   14.7529   20.9138 H    0  0  0  0  0  0  0  0  0  0  0  0
    8.3281   16.2610   21.6903 H    0  0  0  0  0  0  0  0  0  0  0  0
    5.9992   11.8966   24.4472 H    0  0  0  0  0  0  0  0  0  0  0  0
    7.8492   11.8765   26.8805 H    0  0  0  0  0  0  0  0  0  0  0  0
    9.8420   11.8845   24.5941 H    0  0  0  0  0  0  0  0  0  0  0  0
   10.5979   10.2951   24.7342 H    0  0  0  0  0  0  0  0  0  0  0  0
   10.2132   11.2216   26.1975 H    0  0  0  0  0  0  0  0  0  0  0  0
    6.1329   14.0683   26.6212 H    0  0  0  0  0  0  0  0  0  0  0  0
    5.0644   14.0282   25.2304 H    0  0  0  0  0  0  0  0  0  0  0  0
    3.9457   13.3359   27.3934 H    0  0  0  0  0  0  0  0  0  0  0  0
    3.8040   12.1473   26.1086 H    0  0  0  0  0  0  0  0  0  0  0  0
    5.7005   12.0492   28.5283 H    0  0  0  0  0  0  0  0  0  0  0  0
    4.3620   10.9652   28.1877 H    0  0  0  0  0  0  0  0  0  0  0  0
    6.5857    9.9245   27.6592 H    0  0  0  0  0  0  0  0  0  0  0  0
    5.5216    9.9800   26.2677 H    0  0  0  0  0  0  0  0  0  0  0  0
  9 10  1  0  0  0  0
  7  9  1  0  0  0  0
  6  7  1  0  0  0  0
  5  6  1  0  0  0  0
  4  5  1  0  0  0  0
  2  4  1  0  0  0  0
  1  2  2  0  0  0  0
  3  2  1  0  0  0  0
 21  3  1  0  0  0  0
 22  3  1  0  0  0  0
 23  4  1  0  0  0  0
 24  5  1  0  0  0  0
 25  5  1  0  0  0  0
 26  6  1  0  0  0  0
 27  6  1  0  0  0  0
 28  7  1  0  0  0  0
 29  7  1  0  0  0  0
  8  4  1  0  0  0  0
 30  8  1  0  0  0  0
 31  8  1  0  0  0  0
 11 10  2  0  0  0  0
 12 10  1  0  0  0  0
 13 12  1  0  0  0  0
 32 13  1  0  0  0  0
 14 13  1  0  0  0  0
 15 14  1  0  0  0  0
 20 14  1  0  0  0  0
 33 14  1  0  0  0  0
 16 15  1  0  0  0  0
 34 16  1  0  0  0  0
 35 16  1  0  0  0  0
 36 16  1  0  0  0  0
 17 13  1  0  0  0  0
 37 17  1  0  0  0  0
 38 17  1  0  0  0  0
 18 17  1  0  0  0  0
 39 18  1  0  0  0  0
 40 18  1  0  0  0  0
 19 18  1  0  0  0  0
 41 19  1  0  0  0  0
 42 19  1  0  0  0  0
 43 20  1  0  0  0  0
 44 20  1  0  0  0  0
  9  8  1  0  0  0  0
 20 19  1  0  0  0  0
M  END
>  <FittedScore>
-30.02

$$$$
