A71EV2A-x4843a_best-RMSD
  FITTED

 45 46     0  0  0  0  0  0  0999 V2000
    9.7064   16.8171   19.2455 O    0  0  0  0  0  0  0  0  0  0  0  0
   10.3787   15.8918   19.6533 C    0  0  0  0  0  0  0  0  0  0  0  0
   10.7345   14.9304   18.7844 N    0  0  0  0  0  0  0  0  0  0  0  0
   10.6127   15.5733   21.1381 C    0  0  0  0  0  0  0  0  0  0  0  0
   11.0945   16.8218   21.9270 C    0  0  0  0  0  0  0  0  0  0  0  0
   11.1680   16.5061   23.4381 C    0  0  0  0  0  0  0  0  0  0  0  0
    9.8139   15.9810   23.9632 C    0  0  0  0  0  0  0  0  0  0  0  0
    9.3444   14.9161   21.7811 C    0  0  0  0  0  0  0  0  0  0  0  0
    9.3546   14.7219   23.2812 N    0  0  0  0  0  0  0  0  0  0  0  0
    9.0212   13.5893   24.0092 C    0  0  0  0  0  0  0  0  0  0  0  0
    9.5900   13.3948   25.0751 O    0  0  0  0  0  0  0  0  0  0  0  0
    7.9779   12.7442   23.6453 N    0  0  0  0  0  0  0  0  0  0  0  0
    7.1045   12.8655   22.4499 C    0  0  0  0  0  0  0  0  0  0  0  0
    7.5034   11.7179   24.5508 C    0  0  0  0  0  0  0  0  0  0  0  0
    7.7382   10.3499   24.2999 C    0  0  0  0  0  0  0  0  0  0  0  0
    8.5537    9.9805   23.2379 O    0  0  0  0  0  0  0  0  0  0  0  0
    9.4917    8.8867   23.3482 C    0  0  0  0  0  0  0  0  0  0  0  0
    6.7504   12.0976   25.6811 C    0  0  0  0  0  0  0  0  0  0  0  0
    6.2106   11.1319   26.5529 C    0  0  0  0  0  0  0  0  0  0  0  0
    5.4154   11.5616   27.7936 C    0  0  0  0  0  0  0  0  0  0  0  0
    6.0082   12.5711   28.4589 F    0  0  0  0  0  0  0  0  0  0  0  0
    4.2003   12.0026   27.4304 F    0  0  0  0  0  0  0  0  0  0  0  0
    5.2316   10.5826   28.7058 F    0  0  0  0  0  0  0  0  0  0  0  0
    6.3846    9.7717   26.2388 C    0  0  0  0  0  0  0  0  0  0  0  0
    7.1450    9.3851   25.1326 C    0  0  0  0  0  0  0  0  0  0  0  0
   10.5833   15.0698   17.7889 H    0  0  0  0  0  0  0  0  0  0  0  0
   11.0426   14.0173   19.1176 H    0  0  0  0  0  0  0  0  0  0  0  0
   11.4246   14.8394   21.2113 H    0  0  0  0  0  0  0  0  0  0  0  0
   12.0791   17.1309   21.5632 H    0  0  0  0  0  0  0  0  0  0  0  0
   10.4143   17.6643   21.7679 H    0  0  0  0  0  0  0  0  0  0  0  0
   11.9539   15.7681   23.6296 H    0  0  0  0  0  0  0  0  0  0  0  0
   11.4494   17.4139   23.9779 H    0  0  0  0  0  0  0  0  0  0  0  0
    9.9282   15.8727   25.0424 H    0  0  0  0  0  0  0  0  0  0  0  0
    9.0440   16.7485   23.8448 H    0  0  0  0  0  0  0  0  0  0  0  0
    9.2761   13.9464   21.2923 H    0  0  0  0  0  0  0  0  0  0  0  0
    8.4545   15.4902   21.5036 H    0  0  0  0  0  0  0  0  0  0  0  0
    7.6021   12.4703   21.5585 H    0  0  0  0  0  0  0  0  0  0  0  0
    6.7962   13.8998   22.2844 H    0  0  0  0  0  0  0  0  0  0  0  0
    6.1714   12.3020   22.5514 H    0  0  0  0  0  0  0  0  0  0  0  0
   10.1100    8.9864   24.2429 H    0  0  0  0  0  0  0  0  0  0  0  0
   10.1513    8.9217   22.4802 H    0  0  0  0  0  0  0  0  0  0  0  0
    8.9894    7.9168   23.3265 H    0  0  0  0  0  0  0  0  0  0  0  0
    6.5811   13.1534   25.8854 H    0  0  0  0  0  0  0  0  0  0  0  0
    5.9459    8.9918   26.8583 H    0  0  0  0  0  0  0  0  0  0  0  0
    7.2661    8.3241   24.9353 H    0  0  0  0  0  0  0  0  0  0  0  0
  9 10  1  0  0  0  0
  7  9  1  0  0  0  0
  6  7  1  0  0  0  0
  5  6  1  0  0  0  0
  4  5  1  0  0  0  0
  2  4  1  0  0  0  0
  1  2  2  0  0  0  0
  3  2  1  0  0  0  0
 26  3  1  0  0  0  0
 27  3  1  0  0  0  0
 28  4  1  0  0  0  0
 29  5  1  0  0  0  0
 30  5  1  0  0  0  0
 31  6  1  0  0  0  0
 32  6  1  0  0  0  0
 33  7  1  0  0  0  0
 34  7  1  0  0  0  0
  8  4  1  0  0  0  0
 35  8  1  0  0  0  0
 36  8  1  0  0  0  0
 11 10  2  0  0  0  0
 12 10  1  0  0  0  0
 13 12  1  0  0  0  0
 37 13  1  0  0  0  0
 38 13  1  0  0  0  0
 39 13  1  0  0  0  0
 14 12  1  0  0  0  0
 15 14  1  0  0  0  0
 25 15  2  0  0  0  0
 16 15  1  0  0  0  0
 17 16  1  0  0  0  0
 40 17  1  0  0  0  0
 41 17  1  0  0  0  0
 42 17  1  0  0  0  0
 18 14  2  0  0  0  0
 43 18  1  0  0  0  0
 19 18  1  0  0  0  0
 20 19  1  0  0  0  0
 21 20  1  0  0  0  0
 22 20  1  0  0  0  0
 23 20  1  0  0  0  0
 24 19  2  0  0  0  0
 44 24  1  0  0  0  0
 45 25  1  0  0  0  0
  9  8  1  0  0  0  0
 25 24  1  0  0  0  0
M  END
>  <FittedScore>
-27.45

$$$$
