A71EV2A-x4843a_lowest-energy
  FITTED

 45 46     0  0  0  0  0  0  0999 V2000
    9.5823   16.9172   19.2442 O    0  0  0  0  0  0  0  0  0  0  0  0
   10.1626   15.9373   19.6695 C    0  0  0  0  0  0  0  0  0  0  0  0
   10.6063   15.0219   18.7916 N    0  0  0  0  0  0  0  0  0  0  0  0
   10.1721   15.5163   21.1464 C    0  0  0  0  0  0  0  0  0  0  0  0
   10.6158   16.6678   22.1064 C    0  0  0  0  0  0  0  0  0  0  0  0
   10.4906   16.2580   23.6032 C    0  0  0  0  0  0  0  0  0  0  0  0
    9.0867   15.6620   23.9051 C    0  0  0  0  0  0  0  0  0  0  0  0
    8.7835   14.9332   21.5633 C    0  0  0  0  0  0  0  0  0  0  0  0
    8.7185   14.5216   22.9952 N    0  0  0  0  0  0  0  0  0  0  0  0
    8.1238   13.3466   23.3922 C    0  0  0  0  0  0  0  0  0  0  0  0
    7.2441   12.8549   22.7001 O    0  0  0  0  0  0  0  0  0  0  0  0
    8.5641   12.7110   24.5384 N    0  0  0  0  0  0  0  0  0  0  0  0
    9.9426   12.8251   25.1006 C    0  0  0  0  0  0  0  0  0  0  0  0
    7.7700   11.6683   25.1399 C    0  0  0  0  0  0  0  0  0  0  0  0
    7.7526   10.3626   24.6008 C    0  0  0  0  0  0  0  0  0  0  0  0
    8.5315   10.0374   23.5025 O    0  0  0  0  0  0  0  0  0  0  0  0
    9.3680    8.8567   23.4845 C    0  0  0  0  0  0  0  0  0  0  0  0
    6.9684   11.9787   26.2556 C    0  0  0  0  0  0  0  0  0  0  0  0
    6.1209   11.0066   26.8305 C    0  0  0  0  0  0  0  0  0  0  0  0
    5.2091   11.3549   28.0219 C    0  0  0  0  0  0  0  0  0  0  0  0
    4.0926   11.9743   27.5911 F    0  0  0  0  0  0  0  0  0  0  0  0
    4.8241   10.2688   28.7262 F    0  0  0  0  0  0  0  0  0  0  0  0
    5.8117   12.1704   28.9135 F    0  0  0  0  0  0  0  0  0  0  0  0
    6.0849    9.7220   26.2478 C    0  0  0  0  0  0  0  0  0  0  0  0
    6.8955    9.4016   25.1575 C    0  0  0  0  0  0  0  0  0  0  0  0
   10.5136   15.1992   17.7968 H    0  0  0  0  0  0  0  0  0  0  0  0
   10.8797   14.0929   19.1098 H    0  0  0  0  0  0  0  0  0  0  0  0
   10.9087   14.7124   21.2736 H    0  0  0  0  0  0  0  0  0  0  0  0
   11.6520   16.9452   21.8949 H    0  0  0  0  0  0  0  0  0  0  0  0
   10.0084   17.5621   21.9368 H    0  0  0  0  0  0  0  0  0  0  0  0
   11.2689   15.5328   23.8565 H    0  0  0  0  0  0  0  0  0  0  0  0
   10.6577   17.1328   24.2384 H    0  0  0  0  0  0  0  0  0  0  0  0
    9.0300   15.3826   24.9571 H    0  0  0  0  0  0  0  0  0  0  0  0
    8.3372   16.4503   23.7918 H    0  0  0  0  0  0  0  0  0  0  0  0
    8.5855   14.0736   20.9157 H    0  0  0  0  0  0  0  0  0  0  0  0
    7.9848   15.6530   21.3605 H    0  0  0  0  0  0  0  0  0  0  0  0
   10.6744   13.1244   24.3450 H    0  0  0  0  0  0  0  0  0  0  0  0
   10.2887   11.8656   25.4912 H    0  0  0  0  0  0  0  0  0  0  0  0
    9.9616   13.5332   25.9344 H    0  0  0  0  0  0  0  0  0  0  0  0
   10.1137    8.8929   24.2838 H    0  0  0  0  0  0  0  0  0  0  0  0
    9.9010    8.8446   22.5367 H    0  0  0  0  0  0  0  0  0  0  0  0
    8.7797    7.9396   23.5388 H    0  0  0  0  0  0  0  0  0  0  0  0
    6.9899   12.9885   26.6636 H    0  0  0  0  0  0  0  0  0  0  0  0
    5.4269    8.9503   26.6392 H    0  0  0  0  0  0  0  0  0  0  0  0
    6.8430    8.4033   24.7340 H    0  0  0  0  0  0  0  0  0  0  0  0
  9 10  1  0  0  0  0
  7  9  1  0  0  0  0
  6  7  1  0  0  0  0
  5  6  1  0  0  0  0
  4  5  1  0  0  0  0
  2  4  1  0  0  0  0
  1  2  2  0  0  0  0
  3  2  1  0  0  0  0
 26  3  1  0  0  0  0
 27  3  1  0  0  0  0
 28  4  1  0  0  0  0
 29  5  1  0  0  0  0
 30  5  1  0  0  0  0
 31  6  1  0  0  0  0
 32  6  1  0  0  0  0
 33  7  1  0  0  0  0
 34  7  1  0  0  0  0
  8  4  1  0  0  0  0
 35  8  1  0  0  0  0
 36  8  1  0  0  0  0
 11 10  2  0  0  0  0
 12 10  1  0  0  0  0
 13 12  1  0  0  0  0
 37 13  1  0  0  0  0
 38 13  1  0  0  0  0
 39 13  1  0  0  0  0
 14 12  1  0  0  0  0
 15 14  1  0  0  0  0
 25 15  2  0  0  0  0
 16 15  1  0  0  0  0
 17 16  1  0  0  0  0
 40 17  1  0  0  0  0
 41 17  1  0  0  0  0
 42 17  1  0  0  0  0
 18 14  2  0  0  0  0
 43 18  1  0  0  0  0
 19 18  1  0  0  0  0
 20 19  1  0  0  0  0
 21 20  1  0  0  0  0
 22 20  1  0  0  0  0
 23 20  1  0  0  0  0
 24 19  2  0  0  0  0
 44 24  1  0  0  0  0
 45 25  1  0  0  0  0
  9  8  1  0  0  0  0
 25 24  1  0  0  0  0
M  END
>  <FittedScore>
-30.18

$$$$
