A71EV2A-x5665a_best-RMSD
  FITTED

 39 40     0  0  0  0  0  0  0999 V2000
   10.6235   14.8963   18.8726 N    0  0  0  0  0  0  0  0  0  0  0  0
   10.4281   15.8302   19.8262 C    0  0  0  0  0  0  0  0  0  0  0  0
    9.9308   16.9072   19.5510 O    0  0  0  0  0  0  0  0  0  0  0  0
   10.5914   15.3253   21.2578 C    0  0  0  0  0  0  0  0  0  0  0  0
   11.4274   16.2885   22.1320 C    0  0  0  0  0  0  0  0  0  0  0  0
   11.5945   15.6799   23.5481 C    0  0  0  0  0  0  0  0  0  0  0  0
   10.3347   15.0617   24.1692 C    0  0  0  0  0  0  0  0  0  0  0  0
   10.3815   14.7040   25.3336 O    0  0  0  0  0  0  0  0  0  0  0  0
    9.2171   14.8416   23.3854 N    0  0  0  0  0  0  0  0  0  0  0  0
    7.9135   14.3418   23.9692 C    0  0  0  0  0  0  0  0  0  0  0  0
    6.5704   14.8774   23.3387 C    0  0  0  0  0  0  0  0  0  0  0  0
    6.2050   16.3425   23.7228 C    0  0  0  0  0  0  0  0  0  0  0  0
    5.1708   16.7481   22.9768 F    0  0  0  0  0  0  0  0  0  0  0  0
    5.7994   16.4604   25.0018 F    0  0  0  0  0  0  0  0  0  0  0  0
    7.2009   17.2186   23.5244 F    0  0  0  0  0  0  0  0  0  0  0  0
    7.9155   12.8193   24.2160 C    0  0  0  0  0  0  0  0  0  0  0  0
    7.0023   12.3314   25.1720 C    0  0  0  0  0  0  0  0  0  0  0  0
    6.8999   10.9659   25.4309 C    0  0  0  0  0  0  0  0  0  0  0  0
    5.7718   10.4325   26.6187 CL   0  0  0  0  0  0  0  0  0  0  0  0
    7.7058   10.0517   24.7422 C    0  0  0  0  0  0  0  0  0  0  0  0
    8.6566   10.5168   23.8254 C    0  0  0  0  0  0  0  0  0  0  0  0
    9.6777    9.3707   23.0372 CL   0  0  0  0  0  0  0  0  0  0  0  0
    8.7596   11.8925   23.5559 C    0  0  0  0  0  0  0  0  0  0  0  0
    9.2028   15.0912   21.9089 C    0  0  0  0  0  0  0  0  0  0  0  0
   10.8665   13.9314   19.0970 H    0  0  0  0  0  0  0  0  0  0  0  0
   10.5081   15.1384   17.9016 H    0  0  0  0  0  0  0  0  0  0  0  0
   11.1114   14.3587   21.2496 H    0  0  0  0  0  0  0  0  0  0  0  0
   10.9225   17.2565   22.2067 H    0  0  0  0  0  0  0  0  0  0  0  0
   12.4092   16.4642   21.6746 H    0  0  0  0  0  0  0  0  0  0  0  0
   11.9648   16.4693   24.2047 H    0  0  0  0  0  0  0  0  0  0  0  0
   12.3703   14.9069   23.5160 H    0  0  0  0  0  0  0  0  0  0  0  0
    7.8801   14.7716   24.9750 H    0  0  0  0  0  0  0  0  0  0  0  0
    5.7328   14.2579   23.6708 H    0  0  0  0  0  0  0  0  0  0  0  0
    6.5504   14.7602   22.2522 H    0  0  0  0  0  0  0  0  0  0  0  0
    6.3386   13.0114   25.7101 H    0  0  0  0  0  0  0  0  0  0  0  0
    7.6076    8.9853   24.9319 H    0  0  0  0  0  0  0  0  0  0  0  0
    9.4980   12.2193   22.8350 H    0  0  0  0  0  0  0  0  0  0  0  0
    8.5850   15.9686   21.6960 H    0  0  0  0  0  0  0  0  0  0  0  0
    8.7388   14.2520   21.3806 H    0  0  0  0  0  0  0  0  0  0  0  0
  7  9  1  0  0  0  0
  6  7  1  0  0  0  0
  5  6  1  0  0  0  0
  4  5  1  0  0  0  0
  2  4  1  0  0  0  0
  1  2  1  0  0  0  0
 25  1  1  0  0  0  0
 26  1  1  0  0  0  0
  3  2  2  0  0  0  0
 27  4  1  0  0  0  0
 28  5  1  0  0  0  0
 29  5  1  0  0  0  0
 30  6  1  0  0  0  0
 31  6  1  0  0  0  0
  8  7  2  0  0  0  0
 10  9  1  0  0  0  0
 24  9  1  0  0  0  0
 11 10  1  0  0  0  0
 16 10  1  0  0  0  0
 32 10  1  0  0  0  0
 12 11  1  0  0  0  0
 33 11  1  0  0  0  0
 34 11  1  0  0  0  0
 13 12  1  0  0  0  0
 14 12  1  0  0  0  0
 15 12  1  0  0  0  0
 17 16  2  0  0  0  0
 18 17  1  0  0  0  0
 35 17  1  0  0  0  0
 19 18  1  0  0  0  0
 20 18  2  0  0  0  0
 21 20  1  0  0  0  0
 36 20  1  0  0  0  0
 22 21  1  0  0  0  0
 23 21  2  0  0  0  0
 37 23  1  0  0  0  0
 38 24  1  0  0  0  0
 39 24  1  0  0  0  0
 23 16  1  0  0  0  0
 24  4  1  0  0  0  0
M  END
>  <FittedScore>
-29.22

$$$$
