A71EV2A-x3221a_lowest-energy
  FITTED

 39 40     0  0  0  0  0  0  0999 V2000
    9.5444   16.8459   19.5055 O    0  0  0  0  0  0  0  0  0  0  0  0
   10.1500   15.8119   19.7323 C    0  0  0  0  0  0  0  0  0  0  0  0
   10.9396   15.2709   18.7912 N    0  0  0  0  0  0  0  0  0  0  0  0
   10.3128   15.1959   21.1151 C    0  0  0  0  0  0  0  0  0  0  0  0
   11.3782   15.9885   21.9274 C    0  0  0  0  0  0  0  0  0  0  0  0
   11.4857   15.4475   23.3711 C    0  0  0  0  0  0  0  0  0  0  0  0
   10.0850   15.3696   24.0403 C    0  0  0  0  0  0  0  0  0  0  0  0
    8.9512   15.1090   21.8704 C    0  0  0  0  0  0  0  0  0  0  0  0
    9.1043   14.5436   23.2467 N    0  0  0  0  0  0  0  0  0  0  0  0
    8.4440   13.4074   23.6743 C    0  0  0  0  0  0  0  0  0  0  0  0
    7.6382   12.8326   22.9588 O    0  0  0  0  0  0  0  0  0  0  0  0
    8.7622   12.8569   25.0690 C    0  0  0  0  0  0  0  0  0  0  0  0
    8.0710   11.5506   25.4113 C    0  0  0  0  0  0  0  0  0  0  0  0
    8.3705   10.2762   24.9444 C    0  0  0  0  0  0  0  0  0  0  0  0
    9.4350    9.9161   23.9172 C    0  0  0  0  0  0  0  0  0  0  0  0
    7.4461    9.2908   25.5537 N    0  0  0  0  0  0  0  0  0  0  0  0
    7.0087   11.4044   26.2310 N    0  0  0  0  0  0  0  0  0  0  0  0
    6.5719   10.1365   26.3813 C    0  0  0  0  0  0  0  0  0  0  0  0
    5.4120    9.6635   27.2305 C    0  0  0  0  0  0  0  0  0  0  0  0
   10.8533   15.5844   17.8386 H    0  0  0  0  0  0  0  0  0  0  0  0
   11.6379   14.5804   19.0275 H    0  0  0  0  0  0  0  0  0  0  0  0
   10.6704   14.1617   21.0128 H    0  0  0  0  0  0  0  0  0  0  0  0
   12.3521   15.9091   21.4388 H    0  0  0  0  0  0  0  0  0  0  0  0
   11.1214   17.0516   21.9516 H    0  0  0  0  0  0  0  0  0  0  0  0
   11.9484   14.4558   23.3559 H    0  0  0  0  0  0  0  0  0  0  0  0
   12.1452   16.0976   23.9511 H    0  0  0  0  0  0  0  0  0  0  0  0
   10.2277   15.0391   25.0683 H    0  0  0  0  0  0  0  0  0  0  0  0
    9.6848   16.3829   24.1446 H    0  0  0  0  0  0  0  0  0  0  0  0
    8.2562   14.5338   21.2557 H    0  0  0  0  0  0  0  0  0  0  0  0
    8.4905   16.0994   21.9561 H    0  0  0  0  0  0  0  0  0  0  0  0
    9.8381   12.6913   25.1630 H    0  0  0  0  0  0  0  0  0  0  0  0
    8.4792   13.5987   25.8195 H    0  0  0  0  0  0  0  0  0  0  0  0
   10.4098   10.3137   24.2153 H    0  0  0  0  0  0  0  0  0  0  0  0
    9.1806   10.3346   22.9392 H    0  0  0  0  0  0  0  0  0  0  0  0
    9.5292    8.8328   23.8067 H    0  0  0  0  0  0  0  0  0  0  0  0
    6.6162   12.1821   26.7507 H    0  0  0  0  0  0  0  0  0  0  0  0
    5.2726    8.5838   27.1243 H    0  0  0  0  0  0  0  0  0  0  0  0
    4.4858   10.1598   26.9345 H    0  0  0  0  0  0  0  0  0  0  0  0
    5.6032    9.8792   28.2841 H    0  0  0  0  0  0  0  0  0  0  0  0
  9 10  1  0  0  0  0
  7  9  1  0  0  0  0
  6  7  1  0  0  0  0
  5  6  1  0  0  0  0
  4  5  1  0  0  0  0
  2  4  1  0  0  0  0
  1  2  2  0  0  0  0
  3  2  1  0  0  0  0
 20  3  1  0  0  0  0
 21  3  1  0  0  0  0
 22  4  1  0  0  0  0
 23  5  1  0  0  0  0
 24  5  1  0  0  0  0
 25  6  1  0  0  0  0
 26  6  1  0  0  0  0
 27  7  1  0  0  0  0
 28  7  1  0  0  0  0
  8  4  1  0  0  0  0
 29  8  1  0  0  0  0
 30  8  1  0  0  0  0
 11 10  2  0  0  0  0
 12 10  1  0  0  0  0
 31 12  1  0  0  0  0
 32 12  1  0  0  0  0
 13 12  1  0  0  0  0
 14 13  2  0  0  0  0
 15 14  1  0  0  0  0
 33 15  1  0  0  0  0
 34 15  1  0  0  0  0
 35 15  1  0  0  0  0
 16 14  1  0  0  0  0
 17 13  1  0  0  0  0
 36 17  1  0  0  0  0
 18 16  2  0  0  0  0
 19 18  1  0  0  0  0
 37 19  1  0  0  0  0
 38 19  1  0  0  0  0
 39 19  1  0  0  0  0
  9  8  1  0  0  0  0
 18 17  1  0  0  0  0
M  END
>  <FittedScore>
-32.17

$$$$
