A71EV2A-x3221a_best-RMSD
  FITTED

 39 40     0  0  0  0  0  0  0999 V2000
    9.5539   16.6503   19.3569 O    0  0  0  0  0  0  0  0  0  0  0  0
   10.2931   15.7289   19.6581 C    0  0  0  0  0  0  0  0  0  0  0  0
   11.1257   15.1853   18.7508 N    0  0  0  0  0  0  0  0  0  0  0  0
   10.4384   15.1714   21.0697 C    0  0  0  0  0  0  0  0  0  0  0  0
   11.4689   15.9961   21.9024 C    0  0  0  0  0  0  0  0  0  0  0  0
   11.5427   15.4716   23.3591 C    0  0  0  0  0  0  0  0  0  0  0  0
   10.1248   15.3757   23.9852 C    0  0  0  0  0  0  0  0  0  0  0  0
    9.0566   15.0520   21.7923 C    0  0  0  0  0  0  0  0  0  0  0  0
    9.1780   14.5179   23.1848 N    0  0  0  0  0  0  0  0  0  0  0  0
    8.5062   13.3965   23.6287 C    0  0  0  0  0  0  0  0  0  0  0  0
    7.6599   12.8461   22.9416 O    0  0  0  0  0  0  0  0  0  0  0  0
    8.8661   12.8264   25.0070 C    0  0  0  0  0  0  0  0  0  0  0  0
    8.1900   11.5107   25.3486 C    0  0  0  0  0  0  0  0  0  0  0  0
    8.4986   10.2406   24.8767 C    0  0  0  0  0  0  0  0  0  0  0  0
    9.5277    9.8940   23.8161 C    0  0  0  0  0  0  0  0  0  0  0  0
    7.5714    9.2551   25.4746 N    0  0  0  0  0  0  0  0  0  0  0  0
    7.1244   11.3555   26.1616 N    0  0  0  0  0  0  0  0  0  0  0  0
    6.6613   10.0926   26.2670 C    0  0  0  0  0  0  0  0  0  0  0  0
    5.4189    9.6208   26.9843 C    0  0  0  0  0  0  0  0  0  0  0  0
   10.9818   15.3736   17.7692 H    0  0  0  0  0  0  0  0  0  0  0  0
   11.8677   14.5525   19.0257 H    0  0  0  0  0  0  0  0  0  0  0  0
   10.8262   14.1469   21.0071 H    0  0  0  0  0  0  0  0  0  0  0  0
   12.4609   15.9333   21.4436 H    0  0  0  0  0  0  0  0  0  0  0  0
   11.1867   17.0532   21.9051 H    0  0  0  0  0  0  0  0  0  0  0  0
   12.0259   14.4903   23.3826 H    0  0  0  0  0  0  0  0  0  0  0  0
   12.1646   16.1433   23.9570 H    0  0  0  0  0  0  0  0  0  0  0  0
   10.2382   15.0708   25.0236 H    0  0  0  0  0  0  0  0  0  0  0  0
    9.7022   16.3838   24.0563 H    0  0  0  0  0  0  0  0  0  0  0  0
    8.4055   14.4372   21.1647 H    0  0  0  0  0  0  0  0  0  0  0  0
    8.5715   16.0318   21.8396 H    0  0  0  0  0  0  0  0  0  0  0  0
    9.9476   12.6701   25.0640 H    0  0  0  0  0  0  0  0  0  0  0  0
    8.6003   13.5540   25.7795 H    0  0  0  0  0  0  0  0  0  0  0  0
    9.6659    8.8153   23.7302 H    0  0  0  0  0  0  0  0  0  0  0  0
   10.4955   10.3421   24.0539 H    0  0  0  0  0  0  0  0  0  0  0  0
    9.2065   10.2705   22.8427 H    0  0  0  0  0  0  0  0  0  0  0  0
    6.6776   12.1409   26.6209 H    0  0  0  0  0  0  0  0  0  0  0  0
    5.6261    8.6957   27.5276 H    0  0  0  0  0  0  0  0  0  0  0  0
    4.6241    9.4218   26.2625 H    0  0  0  0  0  0  0  0  0  0  0  0
    5.0627   10.3659   27.6990 H    0  0  0  0  0  0  0  0  0  0  0  0
  9 10  1  0  0  0  0
  7  9  1  0  0  0  0
  6  7  1  0  0  0  0
  5  6  1  0  0  0  0
  4  5  1  0  0  0  0
  2  4  1  0  0  0  0
  1  2  2  0  0  0  0
  3  2  1  0  0  0  0
 20  3  1  0  0  0  0
 21  3  1  0  0  0  0
 22  4  1  0  0  0  0
 23  5  1  0  0  0  0
 24  5  1  0  0  0  0
 25  6  1  0  0  0  0
 26  6  1  0  0  0  0
 27  7  1  0  0  0  0
 28  7  1  0  0  0  0
  8  4  1  0  0  0  0
 29  8  1  0  0  0  0
 30  8  1  0  0  0  0
 11 10  2  0  0  0  0
 12 10  1  0  0  0  0
 31 12  1  0  0  0  0
 32 12  1  0  0  0  0
 13 12  1  0  0  0  0
 14 13  2  0  0  0  0
 15 14  1  0  0  0  0
 33 15  1  0  0  0  0
 34 15  1  0  0  0  0
 35 15  1  0  0  0  0
 16 14  1  0  0  0  0
 17 13  1  0  0  0  0
 36 17  1  0  0  0  0
 18 16  2  0  0  0  0
 19 18  1  0  0  0  0
 37 19  1  0  0  0  0
 38 19  1  0  0  0  0
 39 19  1  0  0  0  0
  9  8  1  0  0  0  0
 18 17  1  0  0  0  0
M  END
>  <FittedScore>
-31.45

$$$$
