A71EV2A-x5200a_lowest-energy
  FITTED

 43 44     0  0  0  0  0  0  0999 V2000
    9.7093   16.6564   19.2445 O    0  0  0  0  0  0  0  0  0  0  0  0
   10.2871   15.6881   19.6926 C    0  0  0  0  0  0  0  0  0  0  0  0
   10.9582   14.9011   18.8331 N    0  0  0  0  0  0  0  0  0  0  0  0
   10.0653   15.1489   21.1146 C    0  0  0  0  0  0  0  0  0  0  0  0
   10.9193   15.9295   22.1693 C    0  0  0  0  0  0  0  0  0  0  0  0
   10.5144   15.5251   23.6237 C    0  0  0  0  0  0  0  0  0  0  0  0
   11.2925   16.2749   24.7187 C    0  0  0  0  0  0  0  0  0  0  0  0
    8.9861   15.7392   23.7949 C    0  0  0  0  0  0  0  0  0  0  0  0
    8.5369   15.0904   21.4767 C    0  0  0  0  0  0  0  0  0  0  0  0
    8.2441   14.7908   22.9141 N    0  0  0  0  0  0  0  0  0  0  0  0
    7.4295   13.7692   23.3468 C    0  0  0  0  0  0  0  0  0  0  0  0
    6.6863   13.1892   22.5812 O    0  0  0  0  0  0  0  0  0  0  0  0
    7.5020   13.3422   24.8241 C    0  0  0  0  0  0  0  0  0  0  0  0
    6.9458   11.9521   25.1699 C    0  0  0  0  0  0  0  0  0  0  0  0
    7.6407   10.7521   24.8561 C    0  0  0  0  0  0  0  0  0  0  0  0
    9.2030   10.8053   23.9597 S    0  0  0  0  0  0  0  0  0  0  0  0
    9.5488    9.1313   23.3299 C    0  0  0  0  0  0  0  0  0  0  0  0
    5.7243   11.8857   25.8748 C    0  0  0  0  0  0  0  0  0  0  0  0
    5.1896   10.6547   26.2691 C    0  0  0  0  0  0  0  0  0  0  0  0
    5.8723    9.4755   25.9673 C    0  0  0  0  0  0  0  0  0  0  0  0
    7.0855    9.5231   25.2708 C    0  0  0  0  0  0  0  0  0  0  0  0
   11.2025   13.9512   19.0961 H    0  0  0  0  0  0  0  0  0  0  0  0
   10.9971   15.1587   17.8533 H    0  0  0  0  0  0  0  0  0  0  0  0
   10.4194   14.1117   21.1484 H    0  0  0  0  0  0  0  0  0  0  0  0
   11.9805   15.7150   22.0116 H    0  0  0  0  0  0  0  0  0  0  0  0
   10.7904   17.0077   22.0327 H    0  0  0  0  0  0  0  0  0  0  0  0
   10.7407   14.4613   23.7620 H    0  0  0  0  0  0  0  0  0  0  0  0
   11.0135   15.9163   25.7139 H    0  0  0  0  0  0  0  0  0  0  0  0
   11.1049   17.3514   24.6744 H    0  0  0  0  0  0  0  0  0  0  0  0
   12.3690   16.1155   24.6062 H    0  0  0  0  0  0  0  0  0  0  0  0
    8.7028   15.6735   24.8467 H    0  0  0  0  0  0  0  0  0  0  0  0
    8.7182   16.7682   23.5272 H    0  0  0  0  0  0  0  0  0  0  0  0
    8.0814   14.3557   20.8108 H    0  0  0  0  0  0  0  0  0  0  0  0
    8.0487   16.0389   21.2344 H    0  0  0  0  0  0  0  0  0  0  0  0
    8.5370   13.3621   25.1781 H    0  0  0  0  0  0  0  0  0  0  0  0
    6.9849   14.1020   25.4181 H    0  0  0  0  0  0  0  0  0  0  0  0
    8.6875    8.7535   22.7757 H    0  0  0  0  0  0  0  0  0  0  0  0
    9.7943    8.4537   24.1504 H    0  0  0  0  0  0  0  0  0  0  0  0
   10.4042    9.1895   22.6550 H    0  0  0  0  0  0  0  0  0  0  0  0
    5.1778   12.7924   26.1241 H    0  0  0  0  0  0  0  0  0  0  0  0
    4.2471   10.6184   26.8081 H    0  0  0  0  0  0  0  0  0  0  0  0
    5.4609    8.5169   26.2752 H    0  0  0  0  0  0  0  0  0  0  0  0
    7.5790    8.5812   25.0692 H    0  0  0  0  0  0  0  0  0  0  0  0
 10 11  1  0  0  0  0
  8 10  1  0  0  0  0
  6  8  1  0  0  0  0
  7  6  1  0  0  0  0
  5  6  1  0  0  0  0
  4  5  1  0  0  0  0
  2  4  1  0  0  0  0
  1  2  2  0  0  0  0
  3  2  1  0  0  0  0
 22  3  1  0  0  0  0
 23  3  1  0  0  0  0
 24  4  1  0  0  0  0
 25  5  1  0  0  0  0
 26  5  1  0  0  0  0
 27  6  1  0  0  0  0
 28  7  1  0  0  0  0
 29  7  1  0  0  0  0
 30  7  1  0  0  0  0
 31  8  1  0  0  0  0
 32  8  1  0  0  0  0
  9  4  1  0  0  0  0
 33  9  1  0  0  0  0
 34  9  1  0  0  0  0
 12 11  2  0  0  0  0
 13 11  1  0  0  0  0
 35 13  1  0  0  0  0
 36 13  1  0  0  0  0
 14 13  1  0  0  0  0
 15 14  1  0  0  0  0
 21 15  2  0  0  0  0
 16 15  1  0  0  0  0
 17 16  1  0  0  0  0
 37 17  1  0  0  0  0
 38 17  1  0  0  0  0
 39 17  1  0  0  0  0
 18 14  2  0  0  0  0
 40 18  1  0  0  0  0
 19 18  1  0  0  0  0
 41 19  1  0  0  0  0
 20 19  2  0  0  0  0
 42 20  1  0  0  0  0
 43 21  1  0  0  0  0
 10  9  1  0  0  0  0
 21 20  1  0  0  0  0
M  END
>  <FittedScore>
-31.84

$$$$
