A71EV2A-x4403a_best-RMSD
  FITTED

 44 45     0  0  0  0  0  0  0999 V2000
    8.9512   14.8726   27.3780 O    0  0  0  0  0  0  0  0  0  0  0  0
    7.5939   15.2964   27.5659 S    0  0  0  0  0  0  0  0  0  0  0  0
    6.9484   15.0491   28.8260 O    0  0  0  0  0  0  0  0  0  0  0  0
    7.5018   16.9552   27.2541 N    0  0  0  0  0  0  0  0  0  0  0  0
    6.5838   14.6388   26.2474 C    0  0  0  0  0  0  0  0  0  0  0  0
    6.4433   13.1101   26.3453 C    0  0  0  0  0  0  0  0  0  0  0  0
    5.4233   12.6320   27.1952 C    0  0  0  0  0  0  0  0  0  0  0  0
    5.2505   11.2641   27.4247 C    0  0  0  0  0  0  0  0  0  0  0  0
    6.0831   10.3462   26.7844 C    0  0  0  0  0  0  0  0  0  0  0  0
    7.0744   10.7915   25.9014 C    0  0  0  0  0  0  0  0  0  0  0  0
    7.2807   12.1671   25.6737 C    0  0  0  0  0  0  0  0  0  0  0  0
    8.4659   12.5587   24.7736 C    0  0  0  0  0  0  0  0  0  0  0  0
    8.0934   13.4006   23.5385 C    0  0  0  0  0  0  0  0  0  0  0  0
    7.1549   13.0120   22.8606 O    0  0  0  0  0  0  0  0  0  0  0  0
    8.8208   14.5247   23.1806 N    0  0  0  0  0  0  0  0  0  0  0  0
    9.8892   15.2250   23.9779 C    0  0  0  0  0  0  0  0  0  0  0  0
   11.2914   15.1427   23.3113 C    0  0  0  0  0  0  0  0  0  0  0  0
   11.2598   15.6714   21.8545 C    0  0  0  0  0  0  0  0  0  0  0  0
    8.7296   15.1556   21.8226 C    0  0  0  0  0  0  0  0  0  0  0  0
   10.0895   15.0015   21.0750 C    0  0  0  0  0  0  0  0  0  0  0  0
   10.0593   15.4970   19.6399 C    0  0  0  0  0  0  0  0  0  0  0  0
    9.6412   16.5929   19.3114 O    0  0  0  0  0  0  0  0  0  0  0  0
   10.5762   14.6294   18.7487 N    0  0  0  0  0  0  0  0  0  0  0  0
    6.6543   17.1091   26.7072 H    0  0  0  0  0  0  0  0  0  0  0  0
    7.5516   17.4400   28.1410 H    0  0  0  0  0  0  0  0  0  0  0  0
    5.6016   15.1112   26.3083 H    0  0  0  0  0  0  0  0  0  0  0  0
    6.9893   14.9855   25.3044 H    0  0  0  0  0  0  0  0  0  0  0  0
    4.7615   13.3289   27.7040 H    0  0  0  0  0  0  0  0  0  0  0  0
    4.4728   10.9177   28.0998 H    0  0  0  0  0  0  0  0  0  0  0  0
    5.9549    9.2802   26.9648 H    0  0  0  0  0  0  0  0  0  0  0  0
    7.7003   10.0451   25.4119 H    0  0  0  0  0  0  0  0  0  0  0  0
    9.2122   12.9825   25.4364 H    0  0  0  0  0  0  0  0  0  0  0  0
    8.9673   11.6685   24.3859 H    0  0  0  0  0  0  0  0  0  0  0  0
    9.6102   16.2769   24.0996 H    0  0  0  0  0  0  0  0  0  0  0  0
    9.9923   14.8767   24.9940 H    0  0  0  0  0  0  0  0  0  0  0  0
   12.0173   15.7226   23.8860 H    0  0  0  0  0  0  0  0  0  0  0  0
   11.6431   14.1052   23.3145 H    0  0  0  0  0  0  0  0  0  0  0  0
   11.1448   16.7611   21.8541 H    0  0  0  0  0  0  0  0  0  0  0  0
   12.2123   15.4472   21.3619 H    0  0  0  0  0  0  0  0  0  0  0  0
    8.4751   16.2179   21.9124 H    0  0  0  0  0  0  0  0  0  0  0  0
    7.9369   14.7292   21.2017 H    0  0  0  0  0  0  0  0  0  0  0  0
   10.2934   13.9229   21.0613 H    0  0  0  0  0  0  0  0  0  0  0  0
   10.8341   13.6849   19.0419 H    0  0  0  0  0  0  0  0  0  0  0  0
   10.5902   14.8666   17.7687 H    0  0  0  0  0  0  0  0  0  0  0  0
 12 13  1  0  0  0  0
 11 12  1  0  0  0  0
 10 11  2  0  0  0  0
  9 10  1  0  0  0  0
  8  9  2  0  0  0  0
  7  8  1  0  0  0  0
  6  7  2  0  0  0  0
  5  6  1  0  0  0  0
  2  5  1  0  0  0  0
  1  2  2  0  0  0  0
  3  2  2  0  0  0  0
  4  2  1  0  0  0  0
 24  4  1  0  0  0  0
 25  4  1  0  0  0  0
 26  5  1  0  0  0  0
 27  5  1  0  0  0  0
 28  7  1  0  0  0  0
 29  8  1  0  0  0  0
 30  9  1  0  0  0  0
 31 10  1  0  0  0  0
 32 12  1  0  0  0  0
 33 12  1  0  0  0  0
 14 13  2  0  0  0  0
 15 13  1  0  0  0  0
 16 15  1  0  0  0  0
 34 16  1  0  0  0  0
 35 16  1  0  0  0  0
 17 16  1  0  0  0  0
 36 17  1  0  0  0  0
 37 17  1  0  0  0  0
 18 17  1  0  0  0  0
 38 18  1  0  0  0  0
 39 18  1  0  0  0  0
 19 15  1  0  0  0  0
 40 19  1  0  0  0  0
 41 19  1  0  0  0  0
 20 18  1  0  0  0  0
 21 20  1  0  0  0  0
 42 20  1  0  0  0  0
 22 21  2  0  0  0  0
 23 21  1  0  0  0  0
 43 23  1  0  0  0  0
 44 23  1  0  0  0  0
 11  6  1  0  0  0  0
 20 19  1  0  0  0  0
M  END
>  <FittedScore>
-32.46

$$$$
