A71EV2A-x4254a_lowest-energy
  FITTED

 37 39     0  0  0  0  0  0  0999 V2000
    9.2539    9.2427   23.6131 CL   0  0  0  0  0  0  0  0  0  0  0  0
    8.0835    9.9980   24.6462 C    0  0  0  0  0  0  0  0  0  0  0  0
    7.0694    9.2413   25.2546 C    0  0  0  0  0  0  0  0  0  0  0  0
    6.1653    9.8503   26.1396 C    0  0  0  0  0  0  0  0  0  0  0  0
    6.2913   11.2159   26.4187 C    0  0  0  0  0  0  0  0  0  0  0  0
    8.1674   11.3941   24.8963 C    0  0  0  0  0  0  0  0  0  0  0  0
    7.3210   11.9580   25.7942 C    0  0  0  0  0  0  0  0  0  0  0  0
    7.9506   13.3315   25.7005 C    0  0  0  0  0  0  0  0  0  0  0  0
    8.8897   12.6938   24.6041 C    0  0  0  0  0  0  0  0  0  0  0  0
    8.3228   13.4867   23.3755 C    0  0  0  0  0  0  0  0  0  0  0  0
    7.3895   13.1430   22.6657 O    0  0  0  0  0  0  0  0  0  0  0  0
    9.0209   14.6335   23.0228 N    0  0  0  0  0  0  0  0  0  0  0  0
    9.9100   15.4655   23.9165 C    0  0  0  0  0  0  0  0  0  0  0  0
   11.3489   15.6807   23.3630 C    0  0  0  0  0  0  0  0  0  0  0  0
   11.3377   16.2123   21.9026 C    0  0  0  0  0  0  0  0  0  0  0  0
    8.9605   15.2583   21.6600 C    0  0  0  0  0  0  0  0  0  0  0  0
   10.3840   15.3533   21.0212 C    0  0  0  0  0  0  0  0  0  0  0  0
   10.3543   15.8297   19.5681 C    0  0  0  0  0  0  0  0  0  0  0  0
    9.7750   16.8322   19.1901 O    0  0  0  0  0  0  0  0  0  0  0  0
   10.8445   14.9399   18.6814 N    0  0  0  0  0  0  0  0  0  0  0  0
    6.9883    8.1723   25.0625 H    0  0  0  0  0  0  0  0  0  0  0  0
    5.3755    9.2649   26.6108 H    0  0  0  0  0  0  0  0  0  0  0  0
    5.6078   11.7075   27.1061 H    0  0  0  0  0  0  0  0  0  0  0  0
    7.2465   14.1465   25.4761 H    0  0  0  0  0  0  0  0  0  0  0  0
    8.4687   13.6447   26.6114 H    0  0  0  0  0  0  0  0  0  0  0  0
    9.9771   12.6824   24.7382 H    0  0  0  0  0  0  0  0  0  0  0  0
    9.4369   16.4456   24.0592 H    0  0  0  0  0  0  0  0  0  0  0  0
   10.0079   15.0666   24.9253 H    0  0  0  0  0  0  0  0  0  0  0  0
   11.8856   16.3854   24.0051 H    0  0  0  0  0  0  0  0  0  0  0  0
   11.9054   14.7361   23.4000 H    0  0  0  0  0  0  0  0  0  0  0  0
   11.0298   17.2616   21.8923 H    0  0  0  0  0  0  0  0  0  0  0  0
   12.3519   16.1719   21.4943 H    0  0  0  0  0  0  0  0  0  0  0  0
    8.5019   16.2521   21.7265 H    0  0  0  0  0  0  0  0  0  0  0  0
    8.3252   14.6968   20.9729 H    0  0  0  0  0  0  0  0  0  0  0  0
   10.7916   14.3326   21.0452 H    0  0  0  0  0  0  0  0  0  0  0  0
   10.7781   15.1184   17.6871 H    0  0  0  0  0  0  0  0  0  0  0  0
   11.0873   14.0015   18.9936 H    0  0  0  0  0  0  0  0  0  0  0  0
  9 10  1  0  0  0  0
  8  9  1  0  0  0  0
  7  8  1  0  0  0  0
  5  7  1  0  0  0  0
  4  5  2  0  0  0  0
  3  4  1  0  0  0  0
  2  3  2  0  0  0  0
  1  2  1  0  0  0  0
 21  3  1  0  0  0  0
 22  4  1  0  0  0  0
 23  5  1  0  0  0  0
  6  2  1  0  0  0  0
 24  8  1  0  0  0  0
 25  8  1  0  0  0  0
 26  9  1  0  0  0  0
 11 10  2  0  0  0  0
 12 10  1  0  0  0  0
 13 12  1  0  0  0  0
 27 13  1  0  0  0  0
 28 13  1  0  0  0  0
 14 13  1  0  0  0  0
 29 14  1  0  0  0  0
 30 14  1  0  0  0  0
 15 14  1  0  0  0  0
 31 15  1  0  0  0  0
 32 15  1  0  0  0  0
 16 12  1  0  0  0  0
 33 16  1  0  0  0  0
 34 16  1  0  0  0  0
 17 15  1  0  0  0  0
 18 17  1  0  0  0  0
 35 17  1  0  0  0  0
 19 18  2  0  0  0  0
 20 18  1  0  0  0  0
 36 20  1  0  0  0  0
 37 20  1  0  0  0  0
  7  6  2  0  0  0  0
  9  6  1  0  0  0  0
 17 16  1  0  0  0  0
M  END
>  <FittedScore>
-29.64

$$$$
