A71EV2A-x4254a_best-RMSD
  FITTED

 37 39     0  0  0  0  0  0  0999 V2000
    9.2670    9.7011   24.0514 CL   0  0  0  0  0  0  0  0  0  0  0  0
    7.9654   10.3634   24.9841 C    0  0  0  0  0  0  0  0  0  0  0  0
    7.0211    9.5015   25.5626 C    0  0  0  0  0  0  0  0  0  0  0  0
    5.9828   10.0123   26.3530 C    0  0  0  0  0  0  0  0  0  0  0  0
    5.8724   11.3972   26.5382 C    0  0  0  0  0  0  0  0  0  0  0  0
    7.8418   11.7727   25.1692 C    0  0  0  0  0  0  0  0  0  0  0  0
    6.8178   12.2582   25.9161 C    0  0  0  0  0  0  0  0  0  0  0  0
    7.1247   13.7124   25.6102 C    0  0  0  0  0  0  0  0  0  0  0  0
    8.3948   13.1467   24.8632 C    0  0  0  0  0  0  0  0  0  0  0  0
    8.0392   13.6636   23.4234 C    0  0  0  0  0  0  0  0  0  0  0  0
    7.3418   13.0651   22.6201 O    0  0  0  0  0  0  0  0  0  0  0  0
    8.6444   14.8394   23.0046 N    0  0  0  0  0  0  0  0  0  0  0  0
    9.4271   15.7960   23.8616 C    0  0  0  0  0  0  0  0  0  0  0  0
   10.9215   15.8588   23.4367 C    0  0  0  0  0  0  0  0  0  0  0  0
   11.0692   16.2080   21.9222 C    0  0  0  0  0  0  0  0  0  0  0  0
    8.6885   15.3213   21.5838 C    0  0  0  0  0  0  0  0  0  0  0  0
   10.1493   15.3227   21.0231 C    0  0  0  0  0  0  0  0  0  0  0  0
   10.1980   15.7596   19.5560 C    0  0  0  0  0  0  0  0  0  0  0  0
    9.6820   16.7866   19.1532 O    0  0  0  0  0  0  0  0  0  0  0  0
   10.6904   14.8606   18.6783 N    0  0  0  0  0  0  0  0  0  0  0  0
    7.1091    8.4292   25.4134 H    0  0  0  0  0  0  0  0  0  0  0  0
    5.2577    9.3356   26.8030 H    0  0  0  0  0  0  0  0  0  0  0  0
    5.0489   11.8146   27.1157 H    0  0  0  0  0  0  0  0  0  0  0  0
    6.3151   14.2191   25.0666 H    0  0  0  0  0  0  0  0  0  0  0  0
    7.3265   14.3445   26.4854 H    0  0  0  0  0  0  0  0  0  0  0  0
    9.3957   13.3349   25.2640 H    0  0  0  0  0  0  0  0  0  0  0  0
    8.9915   16.7995   23.7671 H    0  0  0  0  0  0  0  0  0  0  0  0
    9.3624   15.5899   24.9295 H    0  0  0  0  0  0  0  0  0  0  0  0
   11.4380   16.6086   24.0382 H    0  0  0  0  0  0  0  0  0  0  0  0
   11.4122   14.9038   23.6399 H    0  0  0  0  0  0  0  0  0  0  0  0
   10.8210   17.2680   21.7840 H    0  0  0  0  0  0  0  0  0  0  0  0
   12.1138   16.0931   21.6139 H    0  0  0  0  0  0  0  0  0  0  0  0
    8.2701   16.3365   21.5304 H    0  0  0  0  0  0  0  0  0  0  0  0
    8.0498   14.7403   20.9152 H    0  0  0  0  0  0  0  0  0  0  0  0
   10.5186   14.2933   21.0864 H    0  0  0  0  0  0  0  0  0  0  0  0
   10.6654   15.0687   17.6957 H    0  0  0  0  0  0  0  0  0  0  0  0
   10.9634   13.9261   18.9611 H    0  0  0  0  0  0  0  0  0  0  0  0
  9 10  1  0  0  0  0
  8  9  1  0  0  0  0
  7  8  1  0  0  0  0
  5  7  1  0  0  0  0
  4  5  2  0  0  0  0
  3  4  1  0  0  0  0
  2  3  2  0  0  0  0
  1  2  1  0  0  0  0
 21  3  1  0  0  0  0
 22  4  1  0  0  0  0
 23  5  1  0  0  0  0
  6  2  1  0  0  0  0
 24  8  1  0  0  0  0
 25  8  1  0  0  0  0
 26  9  1  0  0  0  0
 11 10  2  0  0  0  0
 12 10  1  0  0  0  0
 13 12  1  0  0  0  0
 27 13  1  0  0  0  0
 28 13  1  0  0  0  0
 14 13  1  0  0  0  0
 29 14  1  0  0  0  0
 30 14  1  0  0  0  0
 15 14  1  0  0  0  0
 31 15  1  0  0  0  0
 32 15  1  0  0  0  0
 16 12  1  0  0  0  0
 33 16  1  0  0  0  0
 34 16  1  0  0  0  0
 17 15  1  0  0  0  0
 18 17  1  0  0  0  0
 35 17  1  0  0  0  0
 19 18  2  0  0  0  0
 20 18  1  0  0  0  0
 36 20  1  0  0  0  0
 37 20  1  0  0  0  0
  7  6  2  0  0  0  0
  9  6  1  0  0  0  0
 17 16  1  0  0  0  0
M  END
>  <FittedScore>
-29.68

$$$$
