A71EV2A-x7459a_best-RMSD
  FITTED

 44 47     0  0  0  0  0  0  0999 V2000
    9.3546    8.6128   23.3164 C    0  0  0  0  0  0  0  0  0  0  0  0
    9.4194   10.3486   23.8447 S    0  0  0  0  0  0  0  0  0  0  0  0
    8.0418   10.6506   24.9627 C    0  0  0  0  0  0  0  0  0  0  0  0
    7.2687    9.6070   25.4969 C    0  0  0  0  0  0  0  0  0  0  0  0
    6.1892    9.8683   26.3484 C    0  0  0  0  0  0  0  0  0  0  0  0
    5.8439   11.1873   26.6868 C    0  0  0  0  0  0  0  0  0  0  0  0
    4.7745   11.4143   27.5049 N    0  0  0  0  0  0  0  0  0  0  0  0
    4.4408   12.6916   27.8332 C    0  0  0  0  0  0  0  0  0  0  0  0
    5.1585   13.7979   27.3537 C    0  0  0  0  0  0  0  0  0  0  0  0
    6.2577   13.5832   26.5118 C    0  0  0  0  0  0  0  0  0  0  0  0
    6.6207   12.2592   26.1679 C    0  0  0  0  0  0  0  0  0  0  0  0
    7.7152   11.9771   25.3226 C    0  0  0  0  0  0  0  0  0  0  0  0
    8.4643   13.0287   24.8197 O    0  0  0  0  0  0  0  0  0  0  0  0
    8.2504   13.5602   23.5839 C    0  0  0  0  0  0  0  0  0  0  0  0
    7.3525   13.1444   22.8607 O    0  0  0  0  0  0  0  0  0  0  0  0
    9.1670   14.4799   23.1467 N    0  0  0  0  0  0  0  0  0  0  0  0
    9.1231   15.0858   21.7847 C    0  0  0  0  0  0  0  0  0  0  0  0
   10.4958   15.5832   21.2159 C    0  0  0  0  0  0  0  0  0  0  0  0
   10.3842   15.7536   19.7050 C    0  0  0  0  0  0  0  0  0  0  0  0
   11.0029   14.8743   18.8886 N    0  0  0  0  0  0  0  0  0  0  0  0
    9.6475   16.5930   19.2404 O    0  0  0  0  0  0  0  0  0  0  0  0
   11.6875   14.6984   21.7253 C    0  0  0  0  0  0  0  0  0  0  0  0
   11.7039   14.8747   23.2466 C    0  0  0  0  0  0  0  0  0  0  0  0
   11.5405   13.7301   24.2145 C    0  0  0  0  0  0  0  0  0  0  0  0
   10.4079   14.6874   23.9818 C    0  0  0  0  0  0  0  0  0  0  0  0
    8.3626    8.3665   22.9361 H    0  0  0  0  0  0  0  0  0  0  0  0
    9.6096    7.9641   24.1576 H    0  0  0  0  0  0  0  0  0  0  0  0
   10.0824    8.4571   22.5159 H    0  0  0  0  0  0  0  0  0  0  0  0
    7.4973    8.5673   25.2837 H    0  0  0  0  0  0  0  0  0  0  0  0
    5.6200    9.0323   26.7491 H    0  0  0  0  0  0  0  0  0  0  0  0
    3.5919   12.8605   28.4898 H    0  0  0  0  0  0  0  0  0  0  0  0
    4.8683   14.8080   27.6323 H    0  0  0  0  0  0  0  0  0  0  0  0
    6.8080   14.4412   26.1385 H    0  0  0  0  0  0  0  0  0  0  0  0
    8.4377   15.9393   21.8325 H    0  0  0  0  0  0  0  0  0  0  0  0
    8.6827   14.3810   21.0727 H    0  0  0  0  0  0  0  0  0  0  0  0
   10.6626   16.5968   21.6019 H    0  0  0  0  0  0  0  0  0  0  0  0
   11.5363   14.1080   19.2773 H    0  0  0  0  0  0  0  0  0  0  0  0
   10.8982   14.9580   17.8819 H    0  0  0  0  0  0  0  0  0  0  0  0
   12.6335   15.0053   21.2840 H    0  0  0  0  0  0  0  0  0  0  0  0
   11.5130   13.6544   21.4408 H    0  0  0  0  0  0  0  0  0  0  0  0
   12.3302   15.7034   23.5657 H    0  0  0  0  0  0  0  0  0  0  0  0
   12.0598   13.7909   25.1652 H    0  0  0  0  0  0  0  0  0  0  0  0
   11.4399   12.7225   23.8233 H    0  0  0  0  0  0  0  0  0  0  0  0
   10.0433   15.4344   24.6820 H    0  0  0  0  0  0  0  0  0  0  0  0
 13 14  1  0  0  0  0
 12 13  1  0  0  0  0
 11 12  2  0  0  0  0
 10 11  1  0  0  0  0
  9 10  2  0  0  0  0
  8  9  1  0  0  0  0
  7  8  2  0  0  0  0
  6  7  1  0  0  0  0
  5  6  2  0  0  0  0
  4  5  1  0  0  0  0
  3  4  2  0  0  0  0
  2  3  1  0  0  0  0
  1  2  1  0  0  0  0
 26  1  1  0  0  0  0
 27  1  1  0  0  0  0
 28  1  1  0  0  0  0
 29  4  1  0  0  0  0
 30  5  1  0  0  0  0
 31  8  1  0  0  0  0
 32  9  1  0  0  0  0
 33 10  1  0  0  0  0
 15 14  2  0  0  0  0
 16 14  1  0  0  0  0
 17 16  1  0  0  0  0
 18 17  1  0  0  0  0
 34 17  1  0  0  0  0
 35 17  1  0  0  0  0
 19 18  1  0  0  0  0
 22 18  1  0  0  0  0
 36 18  1  0  0  0  0
 20 19  1  0  0  0  0
 21 19  2  0  0  0  0
 37 20  1  0  0  0  0
 38 20  1  0  0  0  0
 39 22  1  0  0  0  0
 40 22  1  0  0  0  0
 23 22  1  0  0  0  0
 24 23  1  0  0  0  0
 41 23  1  0  0  0  0
 42 24  1  0  0  0  0
 43 24  1  0  0  0  0
 25 24  1  0  0  0  0
 44 25  1  0  0  0  0
 11  6  1  0  0  0  0
 12  3  1  0  0  0  0
 25 16  1  0  0  0  0
 25 23  1  0  0  0  0
M  END
>  <FittedScore>
-33.14

$$$$
