A71EV2A-x7459a_lowest-energy
  FITTED

 44 47     0  0  0  0  0  0  0999 V2000
    6.1608   10.3899   28.0056 C    0  0  0  0  0  0  0  0  0  0  0  0
    6.1240    9.8833   26.2419 S    0  0  0  0  0  0  0  0  0  0  0  0
    7.4797   10.6896   25.3787 C    0  0  0  0  0  0  0  0  0  0  0  0
    8.1326    9.9585   24.3766 C    0  0  0  0  0  0  0  0  0  0  0  0
    9.1850   10.5272   23.6405 C    0  0  0  0  0  0  0  0  0  0  0  0
    9.6434   11.8177   23.9067 C    0  0  0  0  0  0  0  0  0  0  0  0
   10.6711   12.3543   23.2007 N    0  0  0  0  0  0  0  0  0  0  0  0
   11.2082   13.5526   23.5558 C    0  0  0  0  0  0  0  0  0  0  0  0
   10.6941   14.3142   24.6057 C    0  0  0  0  0  0  0  0  0  0  0  0
    9.5775   13.8035   25.2827 C    0  0  0  0  0  0  0  0  0  0  0  0
    9.0333   12.5419   24.9505 C    0  0  0  0  0  0  0  0  0  0  0  0
    7.9179   12.0012   25.6360 C    0  0  0  0  0  0  0  0  0  0  0  0
    7.2951   12.7821   26.5933 O    0  0  0  0  0  0  0  0  0  0  0  0
    6.3126   13.6842   26.3434 C    0  0  0  0  0  0  0  0  0  0  0  0
    5.7186   13.6207   25.2747 O    0  0  0  0  0  0  0  0  0  0  0  0
    6.2028   14.7088   27.2718 N    0  0  0  0  0  0  0  0  0  0  0  0
    7.2751   15.0024   28.2815 C    0  0  0  0  0  0  0  0  0  0  0  0
    8.0463   16.3027   27.8872 C    0  0  0  0  0  0  0  0  0  0  0  0
    9.3276   16.4875   28.6816 C    0  0  0  0  0  0  0  0  0  0  0  0
   10.4012   15.7987   28.2558 N    0  0  0  0  0  0  0  0  0  0  0  0
    9.4284   17.2880   29.6007 O    0  0  0  0  0  0  0  0  0  0  0  0
    7.1279   17.5514   27.9261 C    0  0  0  0  0  0  0  0  0  0  0  0
    5.9103   17.2284   27.0540 C    0  0  0  0  0  0  0  0  0  0  0  0
    4.6171   16.9928   27.7672 C    0  0  0  0  0  0  0  0  0  0  0  0
    5.2392   15.8788   26.9879 C    0  0  0  0  0  0  0  0  0  0  0  0
    5.5590    9.7086   28.6056 H    0  0  0  0  0  0  0  0  0  0  0  0
    5.7331   11.3770   28.1768 H    0  0  0  0  0  0  0  0  0  0  0  0
    7.2068   10.3492   28.3626 H    0  0  0  0  0  0  0  0  0  0  0  0
    7.8013    8.9560   24.1168 H    0  0  0  0  0  0  0  0  0  0  0  0
    9.6209    9.9634   22.8221 H    0  0  0  0  0  0  0  0  0  0  0  0
   12.0544   13.9500   23.0228 H    0  0  0  0  0  0  0  0  0  0  0  0
   11.1037   15.2801   24.8868 H    0  0  0  0  0  0  0  0  0  0  0  0
    9.1554   14.3901   26.0549 H    0  0  0  0  0  0  0  0  0  0  0  0
    7.9898   14.1866   28.4153 H    0  0  0  0  0  0  0  0  0  0  0  0
    6.8191   15.1348   29.2716 H    0  0  0  0  0  0  0  0  0  0  0  0
    8.3354   16.2517   26.8576 H    0  0  0  0  0  0  0  0  0  0  0  0
   10.2965   15.1883   27.4530 H    0  0  0  0  0  0  0  0  0  0  0  0
   11.2979   15.9202   28.7060 H    0  0  0  0  0  0  0  0  0  0  0  0
    7.6511   18.4222   27.5279 H    0  0  0  0  0  0  0  0  0  0  0  0
    6.8491   17.7827   28.9598 H    0  0  0  0  0  0  0  0  0  0  0  0
    5.9380   17.7288   26.0857 H    0  0  0  0  0  0  0  0  0  0  0  0
    3.7460   17.4856   27.3227 H    0  0  0  0  0  0  0  0  0  0  0  0
    4.5998   16.8961   28.8483 H    0  0  0  0  0  0  0  0  0  0  0  0
    4.6735   15.5687   26.1160 H    0  0  0  0  0  0  0  0  0  0  0  0
 13 14  1  0  0  0  0
 12 13  1  0  0  0  0
 11 12  2  0  0  0  0
 10 11  1  0  0  0  0
  9 10  2  0  0  0  0
  8  9  1  0  0  0  0
  7  8  2  0  0  0  0
  6  7  1  0  0  0  0
  5  6  2  0  0  0  0
  4  5  1  0  0  0  0
  3  4  2  0  0  0  0
  2  3  1  0  0  0  0
  1  2  1  0  0  0  0
 26  1  1  0  0  0  0
 27  1  1  0  0  0  0
 28  1  1  0  0  0  0
 29  4  1  0  0  0  0
 30  5  1  0  0  0  0
 31  8  1  0  0  0  0
 32  9  1  0  0  0  0
 33 10  1  0  0  0  0
 15 14  2  0  0  0  0
 16 14  1  0  0  0  0
 17 16  1  0  0  0  0
 18 17  1  0  0  0  0
 34 17  1  0  0  0  0
 35 17  1  0  0  0  0
 19 18  1  0  0  0  0
 22 18  1  0  0  0  0
 36 18  1  0  0  0  0
 20 19  1  0  0  0  0
 21 19  2  0  0  0  0
 37 20  1  0  0  0  0
 38 20  1  0  0  0  0
 39 22  1  0  0  0  0
 40 22  1  0  0  0  0
 23 22  1  0  0  0  0
 24 23  1  0  0  0  0
 41 23  1  0  0  0  0
 42 24  1  0  0  0  0
 43 24  1  0  0  0  0
 25 24  1  0  0  0  0
 44 25  1  0  0  0  0
 11  6  1  0  0  0  0
 12  3  1  0  0  0  0
 25 16  1  0  0  0  0
 25 23  1  0  0  0  0
M  END
>  <FittedScore>
-18.45

$$$$
