A71EV2A-x7323a_best-RMSD
  FITTED

 46 49     0  0  0  0  0  0  0999 V2000
    9.3113    8.7891   23.3173 C    0  0  0  0  0  0  0  0  0  0  0  0
    9.2818   10.5162   23.8551 S    0  0  0  0  0  0  0  0  0  0  0  0
    7.6818   10.7574   24.6027 C    0  0  0  0  0  0  0  0  0  0  0  0
    6.9262    9.6822   25.1074 C    0  0  0  0  0  0  0  0  0  0  0  0
    5.6890    9.9104   25.7038 C    0  0  0  0  0  0  0  0  0  0  0  0
    5.1474   11.2103   25.8006 C    0  0  0  0  0  0  0  0  0  0  0  0
    3.8976   11.4410   26.4260 C    0  0  0  0  0  0  0  0  0  0  0  0
    3.1741   12.6224   26.4051 C    0  0  0  0  0  0  0  0  0  0  0  0
    1.8807   12.4982   27.0911 N    0  0  0  0  0  0  0  0  0  0  0  0
    1.9962   11.2154   27.5248 N    0  0  0  0  0  0  0  0  0  0  0  0
    3.1276   10.5622   27.1626 C    0  0  0  0  0  0  0  0  0  0  0  0
    5.9086   12.2764   25.2601 C    0  0  0  0  0  0  0  0  0  0  0  0
    7.1661   12.0617   24.6888 C    0  0  0  0  0  0  0  0  0  0  0  0
    7.8928   13.1638   24.3127 O    0  0  0  0  0  0  0  0  0  0  0  0
    7.8485   13.7786   23.0980 C    0  0  0  0  0  0  0  0  0  0  0  0
    7.0146   13.4936   22.2523 O    0  0  0  0  0  0  0  0  0  0  0  0
    8.8574   14.6801   22.8769 N    0  0  0  0  0  0  0  0  0  0  0  0
    9.0333   15.4677   21.6383 C    0  0  0  0  0  0  0  0  0  0  0  0
   10.4508   15.2684   21.0199 C    0  0  0  0  0  0  0  0  0  0  0  0
   10.5177   15.8030   19.5877 C    0  0  0  0  0  0  0  0  0  0  0  0
   11.1767   14.9693   18.7587 N    0  0  0  0  0  0  0  0  0  0  0  0
    9.7857   16.6574   19.1366 O    0  0  0  0  0  0  0  0  0  0  0  0
   11.5069   15.8754   22.0144 C    0  0  0  0  0  0  0  0  0  0  0  0
   11.3896   15.1962   23.3999 C    0  0  0  0  0  0  0  0  0  0  0  0
   11.2049   13.7184   23.6873 C    0  0  0  0  0  0  0  0  0  0  0  0
   10.0474   14.6684   23.8086 C    0  0  0  0  0  0  0  0  0  0  0  0
    8.4156    8.5545   22.7284 H    0  0  0  0  0  0  0  0  0  0  0  0
    9.3703    8.1311   24.1779 H    0  0  0  0  0  0  0  0  0  0  0  0
   10.1925    8.6411   22.6999 H    0  0  0  0  0  0  0  0  0  0  0  0
    7.2569    8.6591   25.0376 H    0  0  0  0  0  0  0  0  0  0  0  0
    5.1625    9.0511   26.0817 H    0  0  0  0  0  0  0  0  0  0  0  0
    3.4643   13.5467   25.9250 H    0  0  0  0  0  0  0  0  0  0  0  0
    1.1841   10.6940   27.8458 H    0  0  0  0  0  0  0  0  0  0  0  0
    3.3487    9.5256   27.4350 H    0  0  0  0  0  0  0  0  0  0  0  0
    5.5744   13.3096   25.3189 H    0  0  0  0  0  0  0  0  0  0  0  0
    8.9126   16.5186   21.9058 H    0  0  0  0  0  0  0  0  0  0  0  0
    8.2639   15.2632   20.9068 H    0  0  0  0  0  0  0  0  0  0  0  0
   10.6399   14.2043   20.9550 H    0  0  0  0  0  0  0  0  0  0  0  0
   11.2524   15.1985   17.7772 H    0  0  0  0  0  0  0  0  0  0  0  0
   11.4520   14.0584   19.0893 H    0  0  0  0  0  0  0  0  0  0  0  0
   11.3261   16.9503   22.1494 H    0  0  0  0  0  0  0  0  0  0  0  0
   12.5214   15.7925   21.6041 H    0  0  0  0  0  0  0  0  0  0  0  0
   11.9796   15.7077   24.1490 H    0  0  0  0  0  0  0  0  0  0  0  0
   11.5881   13.2958   24.6032 H    0  0  0  0  0  0  0  0  0  0  0  0
   11.1769   12.9957   22.8754 H    0  0  0  0  0  0  0  0  0  0  0  0
    9.5788   15.0354   24.7077 H    0  0  0  0  0  0  0  0  0  0  0  0
 13 14  1  0  0  0  0
 12 13  2  0  0  0  0
  6 12  1  0  0  0  0
  5  6  2  0  0  0  0
  4  5  1  0  0  0  0
  3  4  2  0  0  0  0
  2  3  1  0  0  0  0
  1  2  1  0  0  0  0
 27  1  1  0  0  0  0
 28  1  1  0  0  0  0
 29  1  1  0  0  0  0
 30  4  1  0  0  0  0
 31  5  1  0  0  0  0
  7  6  1  0  0  0  0
  8  7  1  0  0  0  0
  9  8  2  0  0  0  0
 32  8  1  0  0  0  0
 10  9  1  0  0  0  0
 11 10  1  0  0  0  0
 33 10  1  0  0  0  0
 34 11  1  0  0  0  0
 35 12  1  0  0  0  0
 15 14  1  0  0  0  0
 16 15  2  0  0  0  0
 17 15  1  0  0  0  0
 18 17  1  0  0  0  0
 19 18  1  0  0  0  0
 36 18  1  0  0  0  0
 37 18  1  0  0  0  0
 20 19  1  0  0  0  0
 23 19  1  0  0  0  0
 38 19  1  0  0  0  0
 21 20  1  0  0  0  0
 22 20  2  0  0  0  0
 39 21  1  0  0  0  0
 40 21  1  0  0  0  0
 41 23  1  0  0  0  0
 42 23  1  0  0  0  0
 24 23  1  0  0  0  0
 25 24  1  0  0  0  0
 43 24  1  0  0  0  0
 44 25  1  0  0  0  0
 45 25  1  0  0  0  0
 26 25  1  0  0  0  0
 46 26  1  0  0  0  0
 11  7  2  0  0  0  0
 13  3  1  0  0  0  0
 26 17  1  0  0  0  0
 26 24  1  0  0  0  0
M  END
>  <FittedScore>
-32.69

$$$$
