A71EV2A-x7323a_lowest-energy
  FITTED

 46 49     0  0  0  0  0  0  0999 V2000
    6.3901   10.6877   25.4569 C    0  0  0  0  0  0  0  0  0  0  0  0
    6.0672   12.4937   25.5014 S    0  0  0  0  0  0  0  0  0  0  0  0
    7.5582   13.3162   24.9082 C    0  0  0  0  0  0  0  0  0  0  0  0
    7.9389   12.8381   23.6576 C    0  0  0  0  0  0  0  0  0  0  0  0
    8.8739   13.5104   22.9251 C    0  0  0  0  0  0  0  0  0  0  0  0
    9.5304   14.6438   23.4143 C    0  0  0  0  0  0  0  0  0  0  0  0
   10.4541   15.1973   22.5260 C    0  0  0  0  0  0  0  0  0  0  0  0
   11.3724   16.2132   22.8124 C    0  0  0  0  0  0  0  0  0  0  0  0
   12.1156   16.6417   21.6322 N    0  0  0  0  0  0  0  0  0  0  0  0
   11.5500   15.8008   20.7219 N    0  0  0  0  0  0  0  0  0  0  0  0
   10.5900   14.9567   21.1873 C    0  0  0  0  0  0  0  0  0  0  0  0
    9.2685   15.0816   24.7301 C    0  0  0  0  0  0  0  0  0  0  0  0
    8.2531   14.4364   25.4513 C    0  0  0  0  0  0  0  0  0  0  0  0
    7.8866   14.9662   26.6760 O    0  0  0  0  0  0  0  0  0  0  0  0
    7.5509   16.2418   26.9609 C    0  0  0  0  0  0  0  0  0  0  0  0
    7.3645   17.0172   26.0250 O    0  0  0  0  0  0  0  0  0  0  0  0
    7.4452   16.7277   28.2354 N    0  0  0  0  0  0  0  0  0  0  0  0
    7.5424   18.1706   28.6385 C    0  0  0  0  0  0  0  0  0  0  0  0
    6.9702   18.3352   30.0875 C    0  0  0  0  0  0  0  0  0  0  0  0
    5.4783   17.9679   30.1443 C    0  0  0  0  0  0  0  0  0  0  0  0
    4.7213   18.9370   30.6520 N    0  0  0  0  0  0  0  0  0  0  0  0
    4.9731   16.9211   29.7761 O    0  0  0  0  0  0  0  0  0  0  0  0
    7.7523   17.5173   31.1921 C    0  0  0  0  0  0  0  0  0  0  0  0
    7.9034   16.0820   30.7018 C    0  0  0  0  0  0  0  0  0  0  0  0
    9.2532   15.7633   30.1276 C    0  0  0  0  0  0  0  0  0  0  0  0
    8.0590   15.7885   29.2558 C    0  0  0  0  0  0  0  0  0  0  0  0
    6.7065   10.3224   24.4961 H    0  0  0  0  0  0  0  0  0  0  0  0
    5.4886   10.1133   25.7267 H    0  0  0  0  0  0  0  0  0  0  0  0
    7.1747   10.5127   26.1955 H    0  0  0  0  0  0  0  0  0  0  0  0
    7.4973   11.9836   23.1690 H    0  0  0  0  0  0  0  0  0  0  0  0
    9.0835   13.0635   21.9727 H    0  0  0  0  0  0  0  0  0  0  0  0
   11.5477   16.6818   23.7789 H    0  0  0  0  0  0  0  0  0  0  0  0
   11.7969   15.8402   19.7452 H    0  0  0  0  0  0  0  0  0  0  0  0
    9.9949   14.2765   20.5912 H    0  0  0  0  0  0  0  0  0  0  0  0
    9.7481   15.9468   25.1788 H    0  0  0  0  0  0  0  0  0  0  0  0
    7.0238   18.8600   27.9325 H    0  0  0  0  0  0  0  0  0  0  0  0
    8.5977   18.5037   28.5598 H    0  0  0  0  0  0  0  0  0  0  0  0
    7.1299   19.3789   30.3495 H    0  0  0  0  0  0  0  0  0  0  0  0
    5.1528   19.7932   30.9502 H    0  0  0  0  0  0  0  0  0  0  0  0
    3.7321   18.7754   30.7341 H    0  0  0  0  0  0  0  0  0  0  0  0
    7.3176   17.5170   32.1988 H    0  0  0  0  0  0  0  0  0  0  0  0
    8.7274   17.9885   31.3282 H    0  0  0  0  0  0  0  0  0  0  0  0
    7.4472   15.3232   31.3370 H    0  0  0  0  0  0  0  0  0  0  0  0
    9.6328   14.7681   30.2022 H    0  0  0  0  0  0  0  0  0  0  0  0
    9.9847   16.5405   30.2990 H    0  0  0  0  0  0  0  0  0  0  0  0
    7.6579   14.8881   28.8319 H    0  0  0  0  0  0  0  0  0  0  0  0
 13 14  1  0  0  0  0
 12 13  2  0  0  0  0
  6 12  1  0  0  0  0
  5  6  2  0  0  0  0
  4  5  1  0  0  0  0
  3  4  2  0  0  0  0
  2  3  1  0  0  0  0
  1  2  1  0  0  0  0
 27  1  1  0  0  0  0
 28  1  1  0  0  0  0
 29  1  1  0  0  0  0
 30  4  1  0  0  0  0
 31  5  1  0  0  0  0
  7  6  1  0  0  0  0
  8  7  1  0  0  0  0
  9  8  2  0  0  0  0
 32  8  1  0  0  0  0
 10  9  1  0  0  0  0
 11 10  1  0  0  0  0
 33 10  1  0  0  0  0
 34 11  1  0  0  0  0
 35 12  1  0  0  0  0
 15 14  1  0  0  0  0
 16 15  2  0  0  0  0
 17 15  1  0  0  0  0
 18 17  1  0  0  0  0
 19 18  1  0  0  0  0
 36 18  1  0  0  0  0
 37 18  1  0  0  0  0
 20 19  1  0  0  0  0
 23 19  1  0  0  0  0
 38 19  1  0  0  0  0
 21 20  1  0  0  0  0
 22 20  2  0  0  0  0
 39 21  1  0  0  0  0
 40 21  1  0  0  0  0
 41 23  1  0  0  0  0
 42 23  1  0  0  0  0
 24 23  1  0  0  0  0
 25 24  1  0  0  0  0
 43 24  1  0  0  0  0
 44 25  1  0  0  0  0
 45 25  1  0  0  0  0
 26 25  1  0  0  0  0
 46 26  1  0  0  0  0
 11  7  2  0  0  0  0
 13  3  1  0  0  0  0
 26 17  1  0  0  0  0
 26 24  1  0  0  0  0
M  END
>  <FittedScore>
-16.33

$$$$
