A71EV2A-x4202a_lowest-energy
  FITTED

 40 42     0  0  0  0  0  0  0999 V2000
    9.2818   10.3187   24.1531 BR   0  0  0  0  0  0  0  0  0  0  0  0
    7.6415   10.6934   25.0584 C    0  0  0  0  0  0  0  0  0  0  0  0
    6.8272    9.6072   25.4300 C    0  0  0  0  0  0  0  0  0  0  0  0
    5.6290    9.8172   26.1378 C    0  0  0  0  0  0  0  0  0  0  0  0
    5.2233   11.1186   26.4702 C    0  0  0  0  0  0  0  0  0  0  0  0
    7.2132   12.0032   25.3745 C    0  0  0  0  0  0  0  0  0  0  0  0
    6.0234   12.1983   26.0716 C    0  0  0  0  0  0  0  0  0  0  0  0
    5.7654   13.6577   26.3425 C    0  0  0  0  0  0  0  0  0  0  0  0
    7.0590   14.3840   25.9068 C    0  0  0  0  0  0  0  0  0  0  0  0
    7.8850   13.3445   25.0815 C    0  0  0  0  0  0  0  0  0  0  0  0
    7.9301   13.7191   23.5747 C    0  0  0  0  0  0  0  0  0  0  0  0
    7.1498   13.1697   22.8062 O    0  0  0  0  0  0  0  0  0  0  0  0
    8.7858   14.7152   23.1283 N    0  0  0  0  0  0  0  0  0  0  0  0
    9.6193   15.6294   23.9895 C    0  0  0  0  0  0  0  0  0  0  0  0
   11.0935   15.7660   23.5244 C    0  0  0  0  0  0  0  0  0  0  0  0
   11.1891   16.2047   22.0398 C    0  0  0  0  0  0  0  0  0  0  0  0
    8.8548   15.1658   21.6907 C    0  0  0  0  0  0  0  0  0  0  0  0
   10.3146   15.2867   21.1333 C    0  0  0  0  0  0  0  0  0  0  0  0
   10.3465   15.7507   19.6707 C    0  0  0  0  0  0  0  0  0  0  0  0
    9.9391   16.8355   19.2919 O    0  0  0  0  0  0  0  0  0  0  0  0
   10.7745   14.8386   18.7727 N    0  0  0  0  0  0  0  0  0  0  0  0
    7.1196    8.5903   25.1822 H    0  0  0  0  0  0  0  0  0  0  0  0
    5.0148    8.9664   26.4279 H    0  0  0  0  0  0  0  0  0  0  0  0
    4.3047   11.2846   27.0280 H    0  0  0  0  0  0  0  0  0  0  0  0
    4.9095   14.0105   25.7594 H    0  0  0  0  0  0  0  0  0  0  0  0
    5.5615   13.8229   27.4066 H    0  0  0  0  0  0  0  0  0  0  0  0
    6.8229   15.2914   25.3421 H    0  0  0  0  0  0  0  0  0  0  0  0
    7.6275   14.6857   26.7921 H    0  0  0  0  0  0  0  0  0  0  0  0
    8.8918   13.2740   25.5000 H    0  0  0  0  0  0  0  0  0  0  0  0
    9.1524   16.6205   24.0054 H    0  0  0  0  0  0  0  0  0  0  0  0
    9.6582   15.3294   25.0342 H    0  0  0  0  0  0  0  0  0  0  0  0
   11.6046   16.4987   24.1526 H    0  0  0  0  0  0  0  0  0  0  0  0
   11.6074   14.8115   23.6675 H    0  0  0  0  0  0  0  0  0  0  0  0
   10.8760   17.2508   21.9449 H    0  0  0  0  0  0  0  0  0  0  0  0
   12.2333   16.1581   21.7179 H    0  0  0  0  0  0  0  0  0  0  0  0
    8.3457   16.1330   21.6012 H    0  0  0  0  0  0  0  0  0  0  0  0
    8.3106   14.4906   21.0244 H    0  0  0  0  0  0  0  0  0  0  0  0
   10.7506   14.2807   21.1952 H    0  0  0  0  0  0  0  0  0  0  0  0
   10.7536   15.0511   17.7791 H    0  0  0  0  0  0  0  0  0  0  0  0
   11.0014   13.8938   19.0770 H    0  0  0  0  0  0  0  0  0  0  0  0
 10 11  1  0  0  0  0
  9 10  1  0  0  0  0
  8  9  1  0  0  0  0
  7  8  1  0  0  0  0
  5  7  1  0  0  0  0
  4  5  2  0  0  0  0
  3  4  1  0  0  0  0
  2  3  2  0  0  0  0
  1  2  1  0  0  0  0
 22  3  1  0  0  0  0
 23  4  1  0  0  0  0
 24  5  1  0  0  0  0
  6  2  1  0  0  0  0
 25  8  1  0  0  0  0
 26  8  1  0  0  0  0
 27  9  1  0  0  0  0
 28  9  1  0  0  0  0
 29 10  1  0  0  0  0
 12 11  2  0  0  0  0
 13 11  1  0  0  0  0
 14 13  1  0  0  0  0
 30 14  1  0  0  0  0
 31 14  1  0  0  0  0
 15 14  1  0  0  0  0
 32 15  1  0  0  0  0
 33 15  1  0  0  0  0
 16 15  1  0  0  0  0
 34 16  1  0  0  0  0
 35 16  1  0  0  0  0
 17 13  1  0  0  0  0
 36 17  1  0  0  0  0
 37 17  1  0  0  0  0
 18 16  1  0  0  0  0
 19 18  1  0  0  0  0
 38 18  1  0  0  0  0
 20 19  2  0  0  0  0
 21 19  1  0  0  0  0
 39 21  1  0  0  0  0
 40 21  1  0  0  0  0
  7  6  2  0  0  0  0
 10  6  1  0  0  0  0
 18 17  1  0  0  0  0
M  END
>  <FittedScore>
-33.43

$$$$
