A71EV2A-x4202a_best-RMSD
  FITTED

 40 42     0  0  0  0  0  0  0999 V2000
    9.2877   10.1744   24.0857 BR   0  0  0  0  0  0  0  0  0  0  0  0
    7.6299   10.5802   24.9463 C    0  0  0  0  0  0  0  0  0  0  0  0
    6.7843    9.5113   25.3053 C    0  0  0  0  0  0  0  0  0  0  0  0
    5.5883    9.7488   26.0067 C    0  0  0  0  0  0  0  0  0  0  0  0
    5.2158   11.0566   26.3500 C    0  0  0  0  0  0  0  0  0  0  0  0
    7.2307   11.8982   25.2669 C    0  0  0  0  0  0  0  0  0  0  0  0
    6.0502   12.1172   25.9719 C    0  0  0  0  0  0  0  0  0  0  0  0
    5.8404   13.5766   26.2781 C    0  0  0  0  0  0  0  0  0  0  0  0
    7.1404   14.2771   25.8205 C    0  0  0  0  0  0  0  0  0  0  0  0
    7.9343   13.2224   24.9848 C    0  0  0  0  0  0  0  0  0  0  0  0
    7.9832   13.6096   23.4850 C    0  0  0  0  0  0  0  0  0  0  0  0
    7.1461   13.1358   22.7313 O    0  0  0  0  0  0  0  0  0  0  0  0
    8.8768   14.5710   23.0366 N    0  0  0  0  0  0  0  0  0  0  0  0
    9.7191   15.4669   23.9098 C    0  0  0  0  0  0  0  0  0  0  0  0
   11.1760   15.6806   23.4185 C    0  0  0  0  0  0  0  0  0  0  0  0
   11.2193   16.1785   21.9541 C    0  0  0  0  0  0  0  0  0  0  0  0
    8.9324   15.0330   21.6012 C    0  0  0  0  0  0  0  0  0  0  0  0
   10.3794   15.2389   21.0473 C    0  0  0  0  0  0  0  0  0  0  0  0
   10.3849   15.7264   19.6018 C    0  0  0  0  0  0  0  0  0  0  0  0
    9.9708   16.8183   19.2473 O    0  0  0  0  0  0  0  0  0  0  0  0
   10.8063   14.8134   18.7056 N    0  0  0  0  0  0  0  0  0  0  0  0
    7.0488    8.4890   25.0405 H    0  0  0  0  0  0  0  0  0  0  0  0
    4.9443    8.9142   26.2730 H    0  0  0  0  0  0  0  0  0  0  0  0
    4.2932   11.2438   26.8943 H    0  0  0  0  0  0  0  0  0  0  0  0
    4.9801   13.9660   25.7263 H    0  0  0  0  0  0  0  0  0  0  0  0
    5.6699   13.7304   27.3471 H    0  0  0  0  0  0  0  0  0  0  0  0
    6.9071   15.1869   25.2577 H    0  0  0  0  0  0  0  0  0  0  0  0
    7.7299   14.5790   26.6917 H    0  0  0  0  0  0  0  0  0  0  0  0
    8.9401   13.1162   25.3966 H    0  0  0  0  0  0  0  0  0  0  0  0
    9.2215   16.4369   23.9858 H    0  0  0  0  0  0  0  0  0  0  0  0
    9.8056   15.1148   24.9353 H    0  0  0  0  0  0  0  0  0  0  0  0
   11.6749   16.4075   24.0632 H    0  0  0  0  0  0  0  0  0  0  0  0
   11.7291   14.7414   23.5105 H    0  0  0  0  0  0  0  0  0  0  0  0
   10.8420   17.2068   21.9013 H    0  0  0  0  0  0  0  0  0  0  0  0
   12.2534   16.2074   21.6044 H    0  0  0  0  0  0  0  0  0  0  0  0
    8.3625   15.9623   21.5163 H    0  0  0  0  0  0  0  0  0  0  0  0
    8.4369   14.3190   20.9350 H    0  0  0  0  0  0  0  0  0  0  0  0
   10.8619   14.2537   21.0848 H    0  0  0  0  0  0  0  0  0  0  0  0
   10.8395   15.0598   17.7247 H    0  0  0  0  0  0  0  0  0  0  0  0
   10.9949   13.8468   18.9769 H    0  0  0  0  0  0  0  0  0  0  0  0
 10 11  1  0  0  0  0
  9 10  1  0  0  0  0
  8  9  1  0  0  0  0
  7  8  1  0  0  0  0
  5  7  1  0  0  0  0
  4  5  2  0  0  0  0
  3  4  1  0  0  0  0
  2  3  2  0  0  0  0
  1  2  1  0  0  0  0
 22  3  1  0  0  0  0
 23  4  1  0  0  0  0
 24  5  1  0  0  0  0
  6  2  1  0  0  0  0
 25  8  1  0  0  0  0
 26  8  1  0  0  0  0
 27  9  1  0  0  0  0
 28  9  1  0  0  0  0
 29 10  1  0  0  0  0
 12 11  2  0  0  0  0
 13 11  1  0  0  0  0
 14 13  1  0  0  0  0
 30 14  1  0  0  0  0
 31 14  1  0  0  0  0
 15 14  1  0  0  0  0
 32 15  1  0  0  0  0
 33 15  1  0  0  0  0
 16 15  1  0  0  0  0
 34 16  1  0  0  0  0
 35 16  1  0  0  0  0
 17 13  1  0  0  0  0
 36 17  1  0  0  0  0
 37 17  1  0  0  0  0
 18 16  1  0  0  0  0
 19 18  1  0  0  0  0
 38 18  1  0  0  0  0
 20 19  2  0  0  0  0
 21 19  1  0  0  0  0
 39 21  1  0  0  0  0
 40 21  1  0  0  0  0
  7  6  2  0  0  0  0
 10  6  1  0  0  0  0
 18 17  1  0  0  0  0
M  END
>  <FittedScore>
-33.22

$$$$
