A71EV2A-x4292a_lowest-energy
  FITTED

 38 39     0  0  0  0  0  0  0999 V2000
   10.5340   10.4798   24.9826 F    0  0  0  0  0  0  0  0  0  0  0  0
    9.4860   10.1934   24.1913 C    0  0  0  0  0  0  0  0  0  0  0  0
    9.6533   10.8719   23.0468 F    0  0  0  0  0  0  0  0  0  0  0  0
    9.6573    8.8986   23.8579 F    0  0  0  0  0  0  0  0  0  0  0  0
    8.1458   10.4917   24.9213 C    0  0  0  0  0  0  0  0  0  0  0  0
    7.2480    9.4361   25.1908 C    0  0  0  0  0  0  0  0  0  0  0  0
    6.1020    9.6508   25.9684 C    0  0  0  0  0  0  0  0  0  0  0  0
    5.7835   10.8687   26.4698 N    0  0  0  0  0  0  0  0  0  0  0  0
    6.5929   11.9164   26.1671 C    0  0  0  0  0  0  0  0  0  0  0  0
    7.7779   11.7825   25.4081 C    0  0  0  0  0  0  0  0  0  0  0  0
    8.5499   13.0606   25.0723 C    0  0  0  0  0  0  0  0  0  0  0  0
    8.2518   13.5974   23.6655 C    0  0  0  0  0  0  0  0  0  0  0  0
    7.5100   12.9621   22.9310 O    0  0  0  0  0  0  0  0  0  0  0  0
    8.9168   14.7225   23.2159 N    0  0  0  0  0  0  0  0  0  0  0  0
    9.9198   15.5362   23.9865 C    0  0  0  0  0  0  0  0  0  0  0  0
   11.3452   15.4110   23.3908 C    0  0  0  0  0  0  0  0  0  0  0  0
   11.3662   15.8110   21.8891 C    0  0  0  0  0  0  0  0  0  0  0  0
    8.8534   15.2119   21.7994 C    0  0  0  0  0  0  0  0  0  0  0  0
   10.2319   15.1119   21.0716 C    0  0  0  0  0  0  0  0  0  0  0  0
   10.1894   15.6775   19.6475 C    0  0  0  0  0  0  0  0  0  0  0  0
    9.7522   16.7814   19.3782 O    0  0  0  0  0  0  0  0  0  0  0  0
   10.7144   14.9128   18.6679 N    0  0  0  0  0  0  0  0  0  0  0  0
    7.4399    8.4306   24.8305 H    0  0  0  0  0  0  0  0  0  0  0  0
    5.4516    8.8056   26.1877 H    0  0  0  0  0  0  0  0  0  0  0  0
    6.3000   12.8995   26.5288 H    0  0  0  0  0  0  0  0  0  0  0  0
    8.3287   13.8228   25.8237 H    0  0  0  0  0  0  0  0  0  0  0  0
    9.6227   12.8793   25.1499 H    0  0  0  0  0  0  0  0  0  0  0  0
    9.6120   16.5868   23.9780 H    0  0  0  0  0  0  0  0  0  0  0  0
    9.9703   15.2846   25.0436 H    0  0  0  0  0  0  0  0  0  0  0  0
   12.0284   16.0595   23.9459 H    0  0  0  0  0  0  0  0  0  0  0  0
   11.7092   14.3840   23.5056 H    0  0  0  0  0  0  0  0  0  0  0  0
   11.2550   16.8979   21.8144 H    0  0  0  0  0  0  0  0  0  0  0  0
   12.3411   15.5666   21.4559 H    0  0  0  0  0  0  0  0  0  0  0  0
    8.4992   16.2476   21.8002 H    0  0  0  0  0  0  0  0  0  0  0  0
    8.1151   14.6666   21.2059 H    0  0  0  0  0  0  0  0  0  0  0  0
   10.4752   14.0389   21.0334 H    0  0  0  0  0  0  0  0  0  0  0  0
   10.6985   15.2358   17.7117 H    0  0  0  0  0  0  0  0  0  0  0  0
   10.9867   13.9493   18.8485 H    0  0  0  0  0  0  0  0  0  0  0  0
 11 12  1  0  0  0  0
 10 11  1  0  0  0  0
  9 10  2  0  0  0  0
  8  9  1  0  0  0  0
  7  8  2  0  0  0  0
  6  7  1  0  0  0  0
  5  6  2  0  0  0  0
  2  5  1  0  0  0  0
  1  2  1  0  0  0  0
  3  2  1  0  0  0  0
  4  2  1  0  0  0  0
 23  6  1  0  0  0  0
 24  7  1  0  0  0  0
 25  9  1  0  0  0  0
 26 11  1  0  0  0  0
 27 11  1  0  0  0  0
 13 12  2  0  0  0  0
 14 12  1  0  0  0  0
 15 14  1  0  0  0  0
 28 15  1  0  0  0  0
 29 15  1  0  0  0  0
 16 15  1  0  0  0  0
 30 16  1  0  0  0  0
 31 16  1  0  0  0  0
 17 16  1  0  0  0  0
 32 17  1  0  0  0  0
 33 17  1  0  0  0  0
 18 14  1  0  0  0  0
 34 18  1  0  0  0  0
 35 18  1  0  0  0  0
 19 17  1  0  0  0  0
 20 19  1  0  0  0  0
 36 19  1  0  0  0  0
 21 20  2  0  0  0  0
 22 20  1  0  0  0  0
 37 22  1  0  0  0  0
 38 22  1  0  0  0  0
 10  5  1  0  0  0  0
 19 18  1  0  0  0  0
M  END
>  <FittedScore>
-35.98

$$$$
