A71EV2A-x4292a_best-RMSD
  FITTED

 38 39     0  0  0  0  0  0  0999 V2000
    9.3420    8.7790   23.7975 F    0  0  0  0  0  0  0  0  0  0  0  0
    9.3251   10.0610   24.2168 C    0  0  0  0  0  0  0  0  0  0  0  0
    9.5988   10.8293   23.1467 F    0  0  0  0  0  0  0  0  0  0  0  0
   10.3887   10.1707   25.0205 F    0  0  0  0  0  0  0  0  0  0  0  0
    8.0275   10.4704   24.9715 C    0  0  0  0  0  0  0  0  0  0  0  0
    7.0514    9.4919   25.2702 C    0  0  0  0  0  0  0  0  0  0  0  0
    5.9337    9.8089   26.0538 C    0  0  0  0  0  0  0  0  0  0  0  0
    5.7134   11.0602   26.5267 N    0  0  0  0  0  0  0  0  0  0  0  0
    6.6021   12.0340   26.2038 C    0  0  0  0  0  0  0  0  0  0  0  0
    7.7675   11.7918   25.4440 C    0  0  0  0  0  0  0  0  0  0  0  0
    8.6169   13.0123   25.0646 C    0  0  0  0  0  0  0  0  0  0  0  0
    8.3263   13.5489   23.6518 C    0  0  0  0  0  0  0  0  0  0  0  0
    7.5475   12.9427   22.9196 O    0  0  0  0  0  0  0  0  0  0  0  0
    9.0268   14.6420   23.1760 N    0  0  0  0  0  0  0  0  0  0  0  0
    9.9681   15.5212   23.9573 C    0  0  0  0  0  0  0  0  0  0  0  0
   11.3819   15.5945   23.3259 C    0  0  0  0  0  0  0  0  0  0  0  0
   11.3286   16.0587   21.8486 C    0  0  0  0  0  0  0  0  0  0  0  0
    8.9242   15.1252   21.7575 C    0  0  0  0  0  0  0  0  0  0  0  0
   10.3054   15.2039   21.0466 C    0  0  0  0  0  0  0  0  0  0  0  0
   10.2130   15.7114   19.6149 C    0  0  0  0  0  0  0  0  0  0  0  0
    9.6858   16.7672   19.3290 O    0  0  0  0  0  0  0  0  0  0  0  0
   10.7114   14.9131   18.6552 N    0  0  0  0  0  0  0  0  0  0  0  0
    7.1621    8.4683   24.9293 H    0  0  0  0  0  0  0  0  0  0  0  0
    5.2217    9.0223   26.2963 H    0  0  0  0  0  0  0  0  0  0  0  0
    6.3898   13.0455   26.5480 H    0  0  0  0  0  0  0  0  0  0  0  0
    8.4247   13.8064   25.7907 H    0  0  0  0  0  0  0  0  0  0  0  0
    9.6766   12.7777   25.1691 H    0  0  0  0  0  0  0  0  0  0  0  0
    9.5449   16.5320   24.0156 H    0  0  0  0  0  0  0  0  0  0  0  0
   10.0925   15.2128   24.9928 H    0  0  0  0  0  0  0  0  0  0  0  0
   12.0056   16.2911   23.8972 H    0  0  0  0  0  0  0  0  0  0  0  0
   11.8613   14.6144   23.3790 H    0  0  0  0  0  0  0  0  0  0  0  0
   11.0619   17.1223   21.8042 H    0  0  0  0  0  0  0  0  0  0  0  0
   12.3144   15.9576   21.3987 H    0  0  0  0  0  0  0  0  0  0  0  0
    8.4279   16.1038   21.7267 H    0  0  0  0  0  0  0  0  0  0  0  0
    8.3034   14.4687   21.1402 H    0  0  0  0  0  0  0  0  0  0  0  0
   10.6842   14.1748   21.0315 H    0  0  0  0  0  0  0  0  0  0  0  0
   10.9579   13.9399   18.8614 H    0  0  0  0  0  0  0  0  0  0  0  0
   10.8172   15.2446   17.7030 H    0  0  0  0  0  0  0  0  0  0  0  0
 11 12  1  0  0  0  0
 10 11  1  0  0  0  0
  9 10  2  0  0  0  0
  8  9  1  0  0  0  0
  7  8  2  0  0  0  0
  6  7  1  0  0  0  0
  5  6  2  0  0  0  0
  2  5  1  0  0  0  0
  1  2  1  0  0  0  0
  3  2  1  0  0  0  0
  4  2  1  0  0  0  0
 23  6  1  0  0  0  0
 24  7  1  0  0  0  0
 25  9  1  0  0  0  0
 26 11  1  0  0  0  0
 27 11  1  0  0  0  0
 13 12  2  0  0  0  0
 14 12  1  0  0  0  0
 15 14  1  0  0  0  0
 28 15  1  0  0  0  0
 29 15  1  0  0  0  0
 16 15  1  0  0  0  0
 30 16  1  0  0  0  0
 31 16  1  0  0  0  0
 17 16  1  0  0  0  0
 32 17  1  0  0  0  0
 33 17  1  0  0  0  0
 18 14  1  0  0  0  0
 34 18  1  0  0  0  0
 35 18  1  0  0  0  0
 19 17  1  0  0  0  0
 20 19  1  0  0  0  0
 36 19  1  0  0  0  0
 21 20  2  0  0  0  0
 22 20  1  0  0  0  0
 37 22  1  0  0  0  0
 38 22  1  0  0  0  0
 10  5  1  0  0  0  0
 19 18  1  0  0  0  0
M  END
>  <FittedScore>
-35.51

$$$$
