A71EV2A-x5177a_lowest-energy
  FITTED

 41 43     0  0  0  0  0  0  0999 V2000
    9.1724   18.4928   20.9290 O    0  0  0  0  0  0  0  0  0  0  0  0
    8.7807   17.4316   21.3341 C    0  0  0  0  0  0  0  0  0  0  0  0
    7.7185   17.3774   22.1638 N    0  0  0  0  0  0  0  0  0  0  0  0
    9.4860   16.1362   20.9102 C    0  0  0  0  0  0  0  0  0  0  0  0
    8.9246   14.7617   21.4412 C    0  0  0  0  0  0  0  0  0  0  0  0
   11.0652   16.2767   21.0672 C    0  0  0  0  0  0  0  0  0  0  0  0
   11.5310   15.8653   22.4557 C    0  0  0  0  0  0  0  0  0  0  0  0
   10.8013   14.7320   23.1012 C    0  0  0  0  0  0  0  0  0  0  0  0
   11.0689   15.9648   23.8847 C    0  0  0  0  0  0  0  0  0  0  0  0
    9.3741   14.4112   22.8270 N    0  0  0  0  0  0  0  0  0  0  0  0
    8.6235   14.1513   23.9599 C    0  0  0  0  0  0  0  0  0  0  0  0
    9.1592   13.8860   25.0265 O    0  0  0  0  0  0  0  0  0  0  0  0
    7.0849   14.2600   23.9648 C    0  0  0  0  0  0  0  0  0  0  0  0
    6.4993   12.9896   24.5742 C    0  0  0  0  0  0  0  0  0  0  0  0
    5.6962   13.0097   25.7396 C    0  0  0  0  0  0  0  0  0  0  0  0
    4.4954   14.3053   25.9984 S    0  0  0  0  0  0  0  0  0  0  0  0
    3.0142   13.6277   25.2214 C    0  0  0  0  0  0  0  0  0  0  0  0
    7.0646   11.7703   24.1607 C    0  0  0  0  0  0  0  0  0  0  0  0
    7.1404   10.6972   25.0686 C    0  0  0  0  0  0  0  0  0  0  0  0
    6.5610   10.8115   26.3385 C    0  0  0  0  0  0  0  0  0  0  0  0
    5.7988   11.9357   26.6496 C    0  0  0  0  0  0  0  0  0  0  0  0
    7.3665   16.5101   22.5398 H    0  0  0  0  0  0  0  0  0  0  0  0
    7.1115   18.1799   22.1659 H    0  0  0  0  0  0  0  0  0  0  0  0
    9.3143   16.1051   19.8338 H    0  0  0  0  0  0  0  0  0  0  0  0
    7.8546   14.7337   21.3211 H    0  0  0  0  0  0  0  0  0  0  0  0
    9.2746   13.9657   20.7933 H    0  0  0  0  0  0  0  0  0  0  0  0
   11.4605   17.2628   20.8309 H    0  0  0  0  0  0  0  0  0  0  0  0
   11.5519   15.6393   20.3197 H    0  0  0  0  0  0  0  0  0  0  0  0
   12.6262   15.8704   22.4384 H    0  0  0  0  0  0  0  0  0  0  0  0
   11.2416   13.7503   23.2740 H    0  0  0  0  0  0  0  0  0  0  0  0
   10.2409   16.5993   24.1803 H    0  0  0  0  0  0  0  0  0  0  0  0
   11.8517   15.8834   24.6388 H    0  0  0  0  0  0  0  0  0  0  0  0
    6.8675   15.1587   24.5628 H    0  0  0  0  0  0  0  0  0  0  0  0
    6.6069   14.4297   23.0065 H    0  0  0  0  0  0  0  0  0  0  0  0
    2.1848   14.3238   25.3736 H    0  0  0  0  0  0  0  0  0  0  0  0
    2.7933   12.6730   25.6830 H    0  0  0  0  0  0  0  0  0  0  0  0
    3.1960   13.4948   24.1503 H    0  0  0  0  0  0  0  0  0  0  0  0
    7.5409   11.6870   23.1957 H    0  0  0  0  0  0  0  0  0  0  0  0
    7.6189    9.7823   24.7621 H    0  0  0  0  0  0  0  0  0  0  0  0
    6.6992   10.0114   27.0553 H    0  0  0  0  0  0  0  0  0  0  0  0
    5.2716   11.9666   27.6051 H    0  0  0  0  0  0  0  0  0  0  0  0
 10 11  1  0  0  0  0
  5 10  1  0  0  0  0
  4  5  1  0  0  0  0
  2  4  1  0  0  0  0
  1  2  2  0  0  0  0
  3  2  1  0  0  0  0
 22  3  1  0  0  0  0
 23  3  1  0  0  0  0
 24  4  1  0  0  0  0
 25  5  1  0  0  0  0
 26  5  1  0  0  0  0
  6  4  1  0  0  0  0
 27  6  1  0  0  0  0
 28  6  1  0  0  0  0
  7  6  1  0  0  0  0
  9  7  1  0  0  0  0
 29  7  1  0  0  0  0
  8  9  1  0  0  0  0
 30  8  1  0  0  0  0
 31  9  1  0  0  0  0
 32  9  1  0  0  0  0
 12 11  2  0  0  0  0
 13 11  1  0  0  0  0
 33 13  1  0  0  0  0
 34 13  1  0  0  0  0
 14 13  1  0  0  0  0
 15 14  1  0  0  0  0
 21 15  2  0  0  0  0
 16 15  1  0  0  0  0
 17 16  1  0  0  0  0
 35 17  1  0  0  0  0
 36 17  1  0  0  0  0
 37 17  1  0  0  0  0
 18 14  2  0  0  0  0
 38 18  1  0  0  0  0
 19 18  1  0  0  0  0
 39 19  1  0  0  0  0
 20 19  2  0  0  0  0
 40 20  1  0  0  0  0
 41 21  1  0  0  0  0
  8  7  1  0  0  0  0
 10  8  1  0  0  0  0
 21 20  1  0  0  0  0
M  END
>  <FittedScore>
-19.56

$$$$
