A71EV2A-x5177a_best-RMSD
  FITTED

 41 43     0  0  0  0  0  0  0999 V2000
   10.0931   16.7477   19.0439 O    0  0  0  0  0  0  0  0  0  0  0  0
   10.4829   15.6640   19.4105 C    0  0  0  0  0  0  0  0  0  0  0  0
   10.5839   14.6620   18.5294 N    0  0  0  0  0  0  0  0  0  0  0  0
   10.5748   15.2327   20.8566 C    0  0  0  0  0  0  0  0  0  0  0  0
    9.1252   14.9525   21.3519 C    0  0  0  0  0  0  0  0  0  0  0  0
   11.2872   16.2960   21.7360 C    0  0  0  0  0  0  0  0  0  0  0  0
   11.3483   15.6746   23.1447 C    0  0  0  0  0  0  0  0  0  0  0  0
   10.2121   14.8080   23.6568 C    0  0  0  0  0  0  0  0  0  0  0  0
   10.4491   16.1637   24.2529 C    0  0  0  0  0  0  0  0  0  0  0  0
    9.0955   14.4163   22.7238 N    0  0  0  0  0  0  0  0  0  0  0  0
    7.9575   13.8768   23.2338 C    0  0  0  0  0  0  0  0  0  0  0  0
    7.0483   13.6142   22.4775 O    0  0  0  0  0  0  0  0  0  0  0  0
    7.8749   13.7728   24.7590 C    0  0  0  0  0  0  0  0  0  0  0  0
    7.2898   12.4328   25.2630 C    0  0  0  0  0  0  0  0  0  0  0  0
    7.8302   11.1682   24.9205 C    0  0  0  0  0  0  0  0  0  0  0  0
    9.2693   11.0096   23.9077 S    0  0  0  0  0  0  0  0  0  0  0  0
    9.2747    9.2357   23.4762 C    0  0  0  0  0  0  0  0  0  0  0  0
    6.0894   12.4582   26.0000 C    0  0  0  0  0  0  0  0  0  0  0  0
    5.4923   11.2743   26.4619 C    0  0  0  0  0  0  0  0  0  0  0  0
    6.0949   10.0405   26.1992 C    0  0  0  0  0  0  0  0  0  0  0  0
    7.2305    9.9806   25.3884 C    0  0  0  0  0  0  0  0  0  0  0  0
   10.4932   14.8275   17.5347 H    0  0  0  0  0  0  0  0  0  0  0  0
   10.6687   13.7246   18.8765 H    0  0  0  0  0  0  0  0  0  0  0  0
   11.1416   14.2928   20.9340 H    0  0  0  0  0  0  0  0  0  0  0  0
    8.5180   15.8760   21.3291 H    0  0  0  0  0  0  0  0  0  0  0  0
    8.6634   14.2197   20.6722 H    0  0  0  0  0  0  0  0  0  0  0  0
   10.7120   17.2370   21.7089 H    0  0  0  0  0  0  0  0  0  0  0  0
   12.2899   16.4984   21.3301 H    0  0  0  0  0  0  0  0  0  0  0  0
   12.3542   15.3574   23.4177 H    0  0  0  0  0  0  0  0  0  0  0  0
   10.4216   13.8415   24.1062 H    0  0  0  0  0  0  0  0  0  0  0  0
    9.7296   16.9471   24.0273 H    0  0  0  0  0  0  0  0  0  0  0  0
   10.8864   16.2175   25.2445 H    0  0  0  0  0  0  0  0  0  0  0  0
    8.8556   13.8906   25.2230 H    0  0  0  0  0  0  0  0  0  0  0  0
    7.2910   14.6329   25.0945 H    0  0  0  0  0  0  0  0  0  0  0  0
    9.4902    8.5952   24.3287 H    0  0  0  0  0  0  0  0  0  0  0  0
   10.0633    9.0691   22.7398 H    0  0  0  0  0  0  0  0  0  0  0  0
    8.3062    8.9698   23.0544 H    0  0  0  0  0  0  0  0  0  0  0  0
    5.6031   13.4028   26.2199 H    0  0  0  0  0  0  0  0  0  0  0  0
    4.5632   11.3238   27.0231 H    0  0  0  0  0  0  0  0  0  0  0  0
    5.6240    9.1228   26.5514 H    0  0  0  0  0  0  0  0  0  0  0  0
    7.6378    9.0090   25.1172 H    0  0  0  0  0  0  0  0  0  0  0  0
 10 11  1  0  0  0  0
  5 10  1  0  0  0  0
  4  5  1  0  0  0  0
  2  4  1  0  0  0  0
  1  2  2  0  0  0  0
  3  2  1  0  0  0  0
 22  3  1  0  0  0  0
 23  3  1  0  0  0  0
 24  4  1  0  0  0  0
 25  5  1  0  0  0  0
 26  5  1  0  0  0  0
  6  4  1  0  0  0  0
 27  6  1  0  0  0  0
 28  6  1  0  0  0  0
  7  6  1  0  0  0  0
  9  7  1  0  0  0  0
 29  7  1  0  0  0  0
  8  9  1  0  0  0  0
 30  8  1  0  0  0  0
 31  9  1  0  0  0  0
 32  9  1  0  0  0  0
 12 11  2  0  0  0  0
 13 11  1  0  0  0  0
 33 13  1  0  0  0  0
 34 13  1  0  0  0  0
 14 13  1  0  0  0  0
 15 14  1  0  0  0  0
 21 15  2  0  0  0  0
 16 15  1  0  0  0  0
 17 16  1  0  0  0  0
 35 17  1  0  0  0  0
 36 17  1  0  0  0  0
 37 17  1  0  0  0  0
 18 14  2  0  0  0  0
 38 18  1  0  0  0  0
 19 18  1  0  0  0  0
 39 19  1  0  0  0  0
 20 19  2  0  0  0  0
 40 20  1  0  0  0  0
 41 21  1  0  0  0  0
  8  7  1  0  0  0  0
 10  8  1  0  0  0  0
 21 20  1  0  0  0  0
M  END
>  <FittedScore>
-31.54

$$$$
