A71EV2A-x5268a_best-RMSD
  FITTED

 43 44     0  0  0  0  0  0  0999 V2000
    9.8937   16.8535   19.1829 O    0  0  0  0  0  0  0  0  0  0  0  0
   10.3977   15.8275   19.5846 C    0  0  0  0  0  0  0  0  0  0  0  0
   10.9017   14.9555   18.7015 N    0  0  0  0  0  0  0  0  0  0  0  0
   10.3270   15.3292   21.0311 C    0  0  0  0  0  0  0  0  0  0  0  0
   11.1955   16.2233   21.9646 C    0  0  0  0  0  0  0  0  0  0  0  0
   11.0643   15.7275   23.4326 C    0  0  0  0  0  0  0  0  0  0  0  0
   11.8992   16.5980   24.4005 C    0  0  0  0  0  0  0  0  0  0  0  0
    9.5583   15.6627   23.8386 C    0  0  0  0  0  0  0  0  0  0  0  0
    8.8564   15.1704   21.5319 C    0  0  0  0  0  0  0  0  0  0  0  0
    8.7538   14.7404   22.9606 N    0  0  0  0  0  0  0  0  0  0  0  0
    7.9137   13.7250   23.3918 C    0  0  0  0  0  0  0  0  0  0  0  0
    7.1399   13.1589   22.6333 O    0  0  0  0  0  0  0  0  0  0  0  0
    7.9279   13.3346   24.8811 C    0  0  0  0  0  0  0  0  0  0  0  0
    7.1621   12.0525   25.2380 C    0  0  0  0  0  0  0  0  0  0  0  0
    7.6529   10.7531   24.9261 C    0  0  0  0  0  0  0  0  0  0  0  0
    9.2123   10.5491   24.0538 S    0  0  0  0  0  0  0  0  0  0  0  0
    9.5833    8.7776   23.8790 C    0  0  0  0  0  0  0  0  0  0  0  0
    5.9399   12.1869   25.9262 C    0  0  0  0  0  0  0  0  0  0  0  0
    5.2185   11.0578   26.3313 C    0  0  0  0  0  0  0  0  0  0  0  0
    5.7020    9.7862   26.0330 C    0  0  0  0  0  0  0  0  0  0  0  0
    6.8989    9.6323   25.3194 C    0  0  0  0  0  0  0  0  0  0  0  0
   10.8661   15.1711   17.7149 H    0  0  0  0  0  0  0  0  0  0  0  0
   11.1153   14.0062   19.0098 H    0  0  0  0  0  0  0  0  0  0  0  0
   10.7649   14.3203   21.0931 H    0  0  0  0  0  0  0  0  0  0  0  0
   12.2400   16.1670   21.6463 H    0  0  0  0  0  0  0  0  0  0  0  0
   10.8905   17.2710   21.8754 H    0  0  0  0  0  0  0  0  0  0  0  0
   11.4740   14.7139   23.4896 H    0  0  0  0  0  0  0  0  0  0  0  0
   12.9573   16.5735   24.1276 H    0  0  0  0  0  0  0  0  0  0  0  0
   11.8150   16.2266   25.4245 H    0  0  0  0  0  0  0  0  0  0  0  0
   11.5727   17.6420   24.3891 H    0  0  0  0  0  0  0  0  0  0  0  0
    9.4959   15.4164   24.8980 H    0  0  0  0  0  0  0  0  0  0  0  0
    9.1189   16.6659   23.7691 H    0  0  0  0  0  0  0  0  0  0  0  0
    8.3712   14.4633   20.8553 H    0  0  0  0  0  0  0  0  0  0  0  0
    8.3124   16.1096   21.4142 H    0  0  0  0  0  0  0  0  0  0  0  0
    8.9476   13.2073   25.2536 H    0  0  0  0  0  0  0  0  0  0  0  0
    7.5235   14.1769   25.4509 H    0  0  0  0  0  0  0  0  0  0  0  0
    8.8146    8.2844   23.2828 H    0  0  0  0  0  0  0  0  0  0  0  0
    9.6527    8.3181   24.8690 H    0  0  0  0  0  0  0  0  0  0  0  0
   10.5425    8.6721   23.3754 H    0  0  0  0  0  0  0  0  0  0  0  0
    5.5412   13.1706   26.1663 H    0  0  0  0  0  0  0  0  0  0  0  0
    4.2867   11.1749   26.8775 H    0  0  0  0  0  0  0  0  0  0  0  0
    5.1511    8.9053   26.3486 H    0  0  0  0  0  0  0  0  0  0  0  0
    7.2230    8.6241   25.1014 H    0  0  0  0  0  0  0  0  0  0  0  0
 10 11  1  0  0  0  0
  8 10  1  0  0  0  0
  6  8  1  0  0  0  0
  7  6  1  0  0  0  0
  5  6  1  0  0  0  0
  4  5  1  0  0  0  0
  2  4  1  0  0  0  0
  1  2  2  0  0  0  0
  3  2  1  0  0  0  0
 22  3  1  0  0  0  0
 23  3  1  0  0  0  0
 24  4  1  0  0  0  0
 25  5  1  0  0  0  0
 26  5  1  0  0  0  0
 27  6  1  0  0  0  0
 28  7  1  0  0  0  0
 29  7  1  0  0  0  0
 30  7  1  0  0  0  0
 31  8  1  0  0  0  0
 32  8  1  0  0  0  0
  9  4  1  0  0  0  0
 33  9  1  0  0  0  0
 34  9  1  0  0  0  0
 12 11  2  0  0  0  0
 13 11  1  0  0  0  0
 35 13  1  0  0  0  0
 36 13  1  0  0  0  0
 14 13  1  0  0  0  0
 15 14  1  0  0  0  0
 21 15  2  0  0  0  0
 16 15  1  0  0  0  0
 17 16  1  0  0  0  0
 37 17  1  0  0  0  0
 38 17  1  0  0  0  0
 39 17  1  0  0  0  0
 18 14  2  0  0  0  0
 40 18  1  0  0  0  0
 19 18  1  0  0  0  0
 41 19  1  0  0  0  0
 20 19  2  0  0  0  0
 42 20  1  0  0  0  0
 43 21  1  0  0  0  0
 10  9  1  0  0  0  0
 21 20  1  0  0  0  0
M  END
>  <FittedScore>
-29.41

$$$$
