A71EV2A-x3208a_best-RMSD
  FITTED

 39 40     0  0  0  0  0  0  0999 V2000
    9.3686   10.2235   23.8541 CL   0  0  0  0  0  0  0  0  0  0  0  0
    7.9812   10.5254   24.8631 C    0  0  0  0  0  0  0  0  0  0  0  0
    7.1891    9.4265   25.2080 C    0  0  0  0  0  0  0  0  0  0  0  0
    6.0455    9.5835   26.0045 C    0  0  0  0  0  0  0  0  0  0  0  0
    5.6605   10.8535   26.4745 C    0  0  0  0  0  0  0  0  0  0  0  0
    4.3622   11.0779   27.2907 C    0  0  0  0  0  0  0  0  0  0  0  0
    4.5986   11.8423   28.3739 F    0  0  0  0  0  0  0  0  0  0  0  0
    3.4832   11.7499   26.5239 F    0  0  0  0  0  0  0  0  0  0  0  0
    3.7329    9.9562   27.7162 F    0  0  0  0  0  0  0  0  0  0  0  0
    6.4677   11.9582   26.1249 C    0  0  0  0  0  0  0  0  0  0  0  0
    7.6263   11.8113   25.3326 C    0  0  0  0  0  0  0  0  0  0  0  0
    8.4456   13.0574   24.9820 C    0  0  0  0  0  0  0  0  0  0  0  0
    8.1822   13.6356   23.5829 C    0  0  0  0  0  0  0  0  0  0  0  0
    7.3979   13.0726   22.8297 O    0  0  0  0  0  0  0  0  0  0  0  0
    8.9171   14.7297   23.1689 N    0  0  0  0  0  0  0  0  0  0  0  0
    9.9555   15.4792   23.9602 C    0  0  0  0  0  0  0  0  0  0  0  0
   11.3664   15.4046   23.3172 C    0  0  0  0  0  0  0  0  0  0  0  0
   11.3583   15.8561   21.8308 C    0  0  0  0  0  0  0  0  0  0  0  0
    8.8483   15.2791   21.7775 C    0  0  0  0  0  0  0  0  0  0  0  0
   10.2194   15.1360   21.0506 C    0  0  0  0  0  0  0  0  0  0  0  0
   10.1669   15.6162   19.6063 C    0  0  0  0  0  0  0  0  0  0  0  0
    9.6733   16.6726   19.2577 O    0  0  0  0  0  0  0  0  0  0  0  0
   10.7046   14.7745   18.7040 N    0  0  0  0  0  0  0  0  0  0  0  0
    7.4648    8.4396   24.8434 H    0  0  0  0  0  0  0  0  0  0  0  0
    5.4545    8.7037   26.2376 H    0  0  0  0  0  0  0  0  0  0  0  0
    6.1788   12.9489   26.4655 H    0  0  0  0  0  0  0  0  0  0  0  0
    8.2493   13.8280   25.7313 H    0  0  0  0  0  0  0  0  0  0  0  0
    9.5082   12.8173   25.0844 H    0  0  0  0  0  0  0  0  0  0  0  0
    9.6499   16.5265   24.0435 H    0  0  0  0  0  0  0  0  0  0  0  0
   10.0516   15.1406   24.9877 H    0  0  0  0  0  0  0  0  0  0  0  0
   12.0581   16.0315   23.8843 H    0  0  0  0  0  0  0  0  0  0  0  0
   11.7449   14.3810   23.3835 H    0  0  0  0  0  0  0  0  0  0  0  0
   11.2377   16.9447   21.7722 H    0  0  0  0  0  0  0  0  0  0  0  0
   12.3271   15.6217   21.3770 H    0  0  0  0  0  0  0  0  0  0  0  0
    8.5502   16.3336   21.8172 H    0  0  0  0  0  0  0  0  0  0  0  0
    8.0791   14.7963   21.1645 H    0  0  0  0  0  0  0  0  0  0  0  0
   10.4536   14.0609   21.0689 H    0  0  0  0  0  0  0  0  0  0  0  0
   10.9761   13.8300   18.9712 H    0  0  0  0  0  0  0  0  0  0  0  0
   10.6847   15.0133   17.7201 H    0  0  0  0  0  0  0  0  0  0  0  0
 12 13  1  0  0  0  0
 11 12  1  0  0  0  0
 10 11  2  0  0  0  0
  5 10  1  0  0  0  0
  4  5  2  0  0  0  0
  3  4  1  0  0  0  0
  2  3  2  0  0  0  0
  1  2  1  0  0  0  0
 24  3  1  0  0  0  0
 25  4  1  0  0  0  0
  6  5  1  0  0  0  0
  7  6  1  0  0  0  0
  8  6  1  0  0  0  0
  9  6  1  0  0  0  0
 26 10  1  0  0  0  0
 27 12  1  0  0  0  0
 28 12  1  0  0  0  0
 14 13  2  0  0  0  0
 15 13  1  0  0  0  0
 16 15  1  0  0  0  0
 29 16  1  0  0  0  0
 30 16  1  0  0  0  0
 17 16  1  0  0  0  0
 31 17  1  0  0  0  0
 32 17  1  0  0  0  0
 18 17  1  0  0  0  0
 33 18  1  0  0  0  0
 34 18  1  0  0  0  0
 19 15  1  0  0  0  0
 35 19  1  0  0  0  0
 36 19  1  0  0  0  0
 20 18  1  0  0  0  0
 21 20  1  0  0  0  0
 37 20  1  0  0  0  0
 22 21  2  0  0  0  0
 23 21  1  0  0  0  0
 38 23  1  0  0  0  0
 39 23  1  0  0  0  0
 11  2  1  0  0  0  0
 20 19  1  0  0  0  0
M  END
>  <FittedScore>
-34.42

$$$$
