A71EV2A-x3208a_lowest-energy
  FITTED

 39 40     0  0  0  0  0  0  0999 V2000
    9.2250   10.1600   23.9042 CL   0  0  0  0  0  0  0  0  0  0  0  0
    7.8271   10.4995   24.8843 C    0  0  0  0  0  0  0  0  0  0  0  0
    7.0148    9.4193   25.2580 C    0  0  0  0  0  0  0  0  0  0  0  0
    5.8706    9.6169   26.0480 C    0  0  0  0  0  0  0  0  0  0  0  0
    5.5067   10.9079   26.4748 C    0  0  0  0  0  0  0  0  0  0  0  0
    4.2844   11.1576   27.3816 C    0  0  0  0  0  0  0  0  0  0  0  0
    3.3837   10.1550   27.4339 F    0  0  0  0  0  0  0  0  0  0  0  0
    3.6143   12.2599   27.0101 F    0  0  0  0  0  0  0  0  0  0  0  0
    4.7130   11.3700   28.6356 F    0  0  0  0  0  0  0  0  0  0  0  0
    6.3350   11.9865   26.1051 C    0  0  0  0  0  0  0  0  0  0  0  0
    7.4900   11.8013   25.3207 C    0  0  0  0  0  0  0  0  0  0  0  0
    8.3433   13.0299   24.9736 C    0  0  0  0  0  0  0  0  0  0  0  0
    8.1791   13.5575   23.5336 C    0  0  0  0  0  0  0  0  0  0  0  0
    7.3964   13.0057   22.7772 O    0  0  0  0  0  0  0  0  0  0  0  0
    8.9256   14.6437   23.1231 N    0  0  0  0  0  0  0  0  0  0  0  0
    9.8764   15.4566   23.9606 C    0  0  0  0  0  0  0  0  0  0  0  0
   11.3206   15.4782   23.3902 C    0  0  0  0  0  0  0  0  0  0  0  0
   11.3456   15.9518   21.9109 C    0  0  0  0  0  0  0  0  0  0  0  0
    8.8959   15.1739   21.7206 C    0  0  0  0  0  0  0  0  0  0  0  0
   10.3075   15.1621   21.0594 C    0  0  0  0  0  0  0  0  0  0  0  0
   10.2808   15.6713   19.6192 C    0  0  0  0  0  0  0  0  0  0  0  0
    9.7207   16.6955   19.2701 O    0  0  0  0  0  0  0  0  0  0  0  0
   10.8433   14.8494   18.7108 N    0  0  0  0  0  0  0  0  0  0  0  0
    7.2673    8.4143   24.9289 H    0  0  0  0  0  0  0  0  0  0  0  0
    5.2710    8.7521   26.3279 H    0  0  0  0  0  0  0  0  0  0  0  0
    6.0789   12.9900   26.4446 H    0  0  0  0  0  0  0  0  0  0  0  0
    8.0998   13.8370   25.6704 H    0  0  0  0  0  0  0  0  0  0  0  0
    9.3905   12.7833   25.1677 H    0  0  0  0  0  0  0  0  0  0  0  0
    9.5016   16.4837   24.0151 H    0  0  0  0  0  0  0  0  0  0  0  0
    9.9353   15.1349   24.9992 H    0  0  0  0  0  0  0  0  0  0  0  0
   11.9344   16.1478   23.9967 H    0  0  0  0  0  0  0  0  0  0  0  0
   11.7646   14.4825   23.4714 H    0  0  0  0  0  0  0  0  0  0  0  0
   11.1431   17.0288   21.8640 H    0  0  0  0  0  0  0  0  0  0  0  0
   12.3484   15.7991   21.5007 H    0  0  0  0  0  0  0  0  0  0  0  0
    8.4820   16.1869   21.7308 H    0  0  0  0  0  0  0  0  0  0  0  0
    8.2222   14.6027   21.0722 H    0  0  0  0  0  0  0  0  0  0  0  0
   10.6279   14.1115   21.0664 H    0  0  0  0  0  0  0  0  0  0  0  0
   11.1480   13.9137   18.9740 H    0  0  0  0  0  0  0  0  0  0  0  0
   10.8760   15.1357   17.7355 H    0  0  0  0  0  0  0  0  0  0  0  0
 12 13  1  0  0  0  0
 11 12  1  0  0  0  0
 10 11  2  0  0  0  0
  5 10  1  0  0  0  0
  4  5  2  0  0  0  0
  3  4  1  0  0  0  0
  2  3  2  0  0  0  0
  1  2  1  0  0  0  0
 24  3  1  0  0  0  0
 25  4  1  0  0  0  0
  6  5  1  0  0  0  0
  7  6  1  0  0  0  0
  8  6  1  0  0  0  0
  9  6  1  0  0  0  0
 26 10  1  0  0  0  0
 27 12  1  0  0  0  0
 28 12  1  0  0  0  0
 14 13  2  0  0  0  0
 15 13  1  0  0  0  0
 16 15  1  0  0  0  0
 29 16  1  0  0  0  0
 30 16  1  0  0  0  0
 17 16  1  0  0  0  0
 31 17  1  0  0  0  0
 32 17  1  0  0  0  0
 18 17  1  0  0  0  0
 33 18  1  0  0  0  0
 34 18  1  0  0  0  0
 19 15  1  0  0  0  0
 35 19  1  0  0  0  0
 36 19  1  0  0  0  0
 20 18  1  0  0  0  0
 21 20  1  0  0  0  0
 37 20  1  0  0  0  0
 22 21  2  0  0  0  0
 23 21  1  0  0  0  0
 38 23  1  0  0  0  0
 39 23  1  0  0  0  0
 11  2  1  0  0  0  0
 20 19  1  0  0  0  0
M  END
>  <FittedScore>
-34.95

$$$$
