A71EV2A-x3890a_lowest-energy
  FITTED

 43 44     0  0  0  0  0  0  0999 V2000
    9.6194   16.5026   19.3546 O    0  0  0  0  0  0  0  0  0  0  0  0
   10.2527   15.5196   19.6971 C    0  0  0  0  0  0  0  0  0  0  0  0
   10.8200   14.7114   18.7854 N    0  0  0  0  0  0  0  0  0  0  0  0
   10.3450   15.0096   21.1272 C    0  0  0  0  0  0  0  0  0  0  0  0
   11.4734   15.7325   21.9104 C    0  0  0  0  0  0  0  0  0  0  0  0
   11.5446   15.1807   23.3549 C    0  0  0  0  0  0  0  0  0  0  0  0
   10.1517   15.1387   24.0387 C    0  0  0  0  0  0  0  0  0  0  0  0
    8.9831   15.0606   21.8746 C    0  0  0  0  0  0  0  0  0  0  0  0
    9.0623   14.4575   23.2423 N    0  0  0  0  0  0  0  0  0  0  0  0
    8.1337   13.5352   23.7067 C    0  0  0  0  0  0  0  0  0  0  0  0
    7.2694   13.0747   22.9686 O    0  0  0  0  0  0  0  0  0  0  0  0
    8.1342   13.1380   25.1997 C    0  0  0  0  0  0  0  0  0  0  0  0
    7.7775   14.3306   26.0537 N    0  0  0  0  0  0  0  0  0  0  0  0
    7.3007   11.8801   25.5394 C    0  0  0  0  0  0  0  0  0  0  0  0
    7.7240   10.6104   25.0622 C    0  0  0  0  0  0  0  0  0  0  0  0
    8.8709   10.5183   24.2631 O    0  0  0  0  0  0  0  0  0  0  0  0
    9.3160    9.3382   23.5629 C    0  0  0  0  0  0  0  0  0  0  0  0
    6.1294   11.9606   26.3359 C    0  0  0  0  0  0  0  0  0  0  0  0
    5.4343   10.8103   26.7116 C    0  0  0  0  0  0  0  0  0  0  0  0
    5.8703    9.5664   26.2624 C    0  0  0  0  0  0  0  0  0  0  0  0
    6.9831    9.4672   25.4203 C    0  0  0  0  0  0  0  0  0  0  0  0
   11.1253   13.7781   19.0571 H    0  0  0  0  0  0  0  0  0  0  0  0
   10.8004   14.9577   17.8063 H    0  0  0  0  0  0  0  0  0  0  0  0
   10.6211   13.9467   21.1022 H    0  0  0  0  0  0  0  0  0  0  0  0
   12.4352   15.5581   21.4188 H    0  0  0  0  0  0  0  0  0  0  0  0
   11.3122   16.8164   21.9178 H    0  0  0  0  0  0  0  0  0  0  0  0
   11.9670   14.1725   23.3390 H    0  0  0  0  0  0  0  0  0  0  0  0
   12.2237   15.7959   23.9479 H    0  0  0  0  0  0  0  0  0  0  0  0
   10.3290   14.6831   25.0090 H    0  0  0  0  0  0  0  0  0  0  0  0
    9.8277   16.1627   24.2531 H    0  0  0  0  0  0  0  0  0  0  0  0
    8.2480   14.5623   21.2387 H    0  0  0  0  0  0  0  0  0  0  0  0
    8.6382   16.0949   21.9594 H    0  0  0  0  0  0  0  0  0  0  0  0
    9.1489   12.8778   25.5099 H    0  0  0  0  0  0  0  0  0  0  0  0
    8.3581   15.1451   25.8027 H    0  0  0  0  0  0  0  0  0  0  0  0
    7.9252   14.1143   27.0500 H    0  0  0  0  0  0  0  0  0  0  0  0
    6.7874   14.5880   25.9102 H    0  0  0  0  0  0  0  0  0  0  0  0
    9.5711    8.5411   24.2633 H    0  0  0  0  0  0  0  0  0  0  0  0
   10.2207    9.5889   23.0045 H    0  0  0  0  0  0  0  0  0  0  0  0
    8.5413    8.9989   22.8680 H    0  0  0  0  0  0  0  0  0  0  0  0
    5.7335   12.9075   26.6881 H    0  0  0  0  0  0  0  0  0  0  0  0
    4.5505   10.8800   27.3422 H    0  0  0  0  0  0  0  0  0  0  0  0
    5.3329    8.6687   26.5536 H    0  0  0  0  0  0  0  0  0  0  0  0
    7.2742    8.4790   25.0761 H    0  0  0  0  0  0  0  0  0  0  0  0
  9 10  1  0  0  0  0
  7  9  1  0  0  0  0
  6  7  1  0  0  0  0
  5  6  1  0  0  0  0
  4  5  1  0  0  0  0
  2  4  1  0  0  0  0
  1  2  2  0  0  0  0
  3  2  1  0  0  0  0
 22  3  1  0  0  0  0
 23  3  1  0  0  0  0
 24  4  1  0  0  0  0
 25  5  1  0  0  0  0
 26  5  1  0  0  0  0
 27  6  1  0  0  0  0
 28  6  1  0  0  0  0
 29  7  1  0  0  0  0
 30  7  1  0  0  0  0
  8  4  1  0  0  0  0
 31  8  1  0  0  0  0
 32  8  1  0  0  0  0
 11 10  2  0  0  0  0
 12 10  1  0  0  0  0
 13 12  1  0  0  0  0
 33 12  1  0  0  0  0
 34 13  1  0  0  0  0
 35 13  1  0  0  0  0
 36 13  1  0  0  0  0
 14 12  1  0  0  0  0
 15 14  1  0  0  0  0
 21 15  2  0  0  0  0
 16 15  1  0  0  0  0
 17 16  1  0  0  0  0
 37 17  1  0  0  0  0
 38 17  1  0  0  0  0
 39 17  1  0  0  0  0
 18 14  2  0  0  0  0
 40 18  1  0  0  0  0
 19 18  1  0  0  0  0
 41 19  1  0  0  0  0
 20 19  2  0  0  0  0
 42 20  1  0  0  0  0
 43 21  1  0  0  0  0
  9  8  1  0  0  0  0
 21 20  1  0  0  0  0
M  CHG  1  13   1
M  END
>  <FittedScore>
-32.96

$$$$
