A71EV2A-x3890a_best-RMSD
  FITTED

 43 44     0  0  0  0  0  0  0999 V2000
    9.4866   16.4606   19.3038 O    0  0  0  0  0  0  0  0  0  0  0  0
   10.0971   15.4768   19.6648 C    0  0  0  0  0  0  0  0  0  0  0  0
   10.7091   14.6633   18.7874 N    0  0  0  0  0  0  0  0  0  0  0  0
   10.2193   15.0130   21.1037 C    0  0  0  0  0  0  0  0  0  0  0  0
   11.3208   15.7977   21.8651 C    0  0  0  0  0  0  0  0  0  0  0  0
   11.4400   15.2392   23.3024 C    0  0  0  0  0  0  0  0  0  0  0  0
   10.0643   15.1123   24.0075 C    0  0  0  0  0  0  0  0  0  0  0  0
    8.8615   15.0226   21.8550 C    0  0  0  0  0  0  0  0  0  0  0  0
    8.9740   14.4223   23.2219 N    0  0  0  0  0  0  0  0  0  0  0  0
    8.0527   13.5000   23.6973 C    0  0  0  0  0  0  0  0  0  0  0  0
    7.1602   13.0547   22.9855 O    0  0  0  0  0  0  0  0  0  0  0  0
    8.0984   13.0856   25.1812 C    0  0  0  0  0  0  0  0  0  0  0  0
    7.7592   14.2648   26.0610 N    0  0  0  0  0  0  0  0  0  0  0  0
    7.2842   11.8177   25.5139 C    0  0  0  0  0  0  0  0  0  0  0  0
    7.7295   10.5555   25.0441 C    0  0  0  0  0  0  0  0  0  0  0  0
    8.8620   10.4847   24.2226 O    0  0  0  0  0  0  0  0  0  0  0  0
    9.3731    9.3088   23.5572 C    0  0  0  0  0  0  0  0  0  0  0  0
    6.1052   11.8834   26.2955 C    0  0  0  0  0  0  0  0  0  0  0  0
    5.4245   10.7240   26.6685 C    0  0  0  0  0  0  0  0  0  0  0  0
    5.8842    9.4850   26.2281 C    0  0  0  0  0  0  0  0  0  0  0  0
    7.0101    9.4003   25.4053 C    0  0  0  0  0  0  0  0  0  0  0  0
   10.7535   14.9030   17.8097 H    0  0  0  0  0  0  0  0  0  0  0  0
   11.0447   13.7560   19.0999 H    0  0  0  0  0  0  0  0  0  0  0  0
   10.5284   13.9584   21.1030 H    0  0  0  0  0  0  0  0  0  0  0  0
   12.2815   15.6725   21.3569 H    0  0  0  0  0  0  0  0  0  0  0  0
   11.0981   16.8710   21.8847 H    0  0  0  0  0  0  0  0  0  0  0  0
   11.9258   14.2565   23.2732 H    0  0  0  0  0  0  0  0  0  0  0  0
   12.0965   15.8892   23.8858 H    0  0  0  0  0  0  0  0  0  0  0  0
   10.2861   14.6313   24.9542 H    0  0  0  0  0  0  0  0  0  0  0  0
    9.7104   16.1146   24.2631 H    0  0  0  0  0  0  0  0  0  0  0  0
    8.1470   14.4826   21.2197 H    0  0  0  0  0  0  0  0  0  0  0  0
    8.4673   16.0413   21.9422 H    0  0  0  0  0  0  0  0  0  0  0  0
    9.1210   12.8266   25.4630 H    0  0  0  0  0  0  0  0  0  0  0  0
    7.9157   14.0333   27.0504 H    0  0  0  0  0  0  0  0  0  0  0  0
    6.7724   14.5354   25.9272 H    0  0  0  0  0  0  0  0  0  0  0  0
    8.3500   15.0734   25.8055 H    0  0  0  0  0  0  0  0  0  0  0  0
    8.6336    8.8914   22.8796 H    0  0  0  0  0  0  0  0  0  0  0  0
    9.6756    8.5626   24.2967 H    0  0  0  0  0  0  0  0  0  0  0  0
   10.2650    9.5875   22.9867 H    0  0  0  0  0  0  0  0  0  0  0  0
    5.6899   12.8265   26.6414 H    0  0  0  0  0  0  0  0  0  0  0  0
    4.5346   10.7801   27.2934 H    0  0  0  0  0  0  0  0  0  0  0  0
    5.3546    8.5801   26.5143 H    0  0  0  0  0  0  0  0  0  0  0  0
    7.3110    8.4139   25.0592 H    0  0  0  0  0  0  0  0  0  0  0  0
  9 10  1  0  0  0  0
  7  9  1  0  0  0  0
  6  7  1  0  0  0  0
  5  6  1  0  0  0  0
  4  5  1  0  0  0  0
  2  4  1  0  0  0  0
  1  2  2  0  0  0  0
  3  2  1  0  0  0  0
 22  3  1  0  0  0  0
 23  3  1  0  0  0  0
 24  4  1  0  0  0  0
 25  5  1  0  0  0  0
 26  5  1  0  0  0  0
 27  6  1  0  0  0  0
 28  6  1  0  0  0  0
 29  7  1  0  0  0  0
 30  7  1  0  0  0  0
  8  4  1  0  0  0  0
 31  8  1  0  0  0  0
 32  8  1  0  0  0  0
 11 10  2  0  0  0  0
 12 10  1  0  0  0  0
 13 12  1  0  0  0  0
 33 12  1  0  0  0  0
 34 13  1  0  0  0  0
 35 13  1  0  0  0  0
 36 13  1  0  0  0  0
 14 12  1  0  0  0  0
 15 14  1  0  0  0  0
 21 15  2  0  0  0  0
 16 15  1  0  0  0  0
 17 16  1  0  0  0  0
 37 17  1  0  0  0  0
 38 17  1  0  0  0  0
 39 17  1  0  0  0  0
 18 14  2  0  0  0  0
 40 18  1  0  0  0  0
 19 18  1  0  0  0  0
 41 19  1  0  0  0  0
 20 19  2  0  0  0  0
 42 20  1  0  0  0  0
 43 21  1  0  0  0  0
  9  8  1  0  0  0  0
 21 20  1  0  0  0  0
M  CHG  1  13   1
M  END
>  <FittedScore>
-33.51

$$$$
