A71EV2A-x6032a_best-RMSD
  FITTED

 55 57     0  0  0  0  0  0  0999 V2000
    9.5586    8.6479   23.6541 C    0  0  0  0  0  0  0  0  0  0  0  0
    9.4845   10.3162   24.3693 S    0  0  0  0  0  0  0  0  0  0  0  0
    7.8112   10.6075   24.9736 C    0  0  0  0  0  0  0  0  0  0  0  0
    6.9255    9.5350   25.1688 C    0  0  0  0  0  0  0  0  0  0  0  0
    5.6280    9.7371   25.6413 C    0  0  0  0  0  0  0  0  0  0  0  0
    5.1549   11.0265   25.9780 C    0  0  0  0  0  0  0  0  0  0  0  0
    3.7466   11.2468   26.4778 C    0  0  0  0  0  0  0  0  0  0  0  0
    2.9380   12.2107   25.8129 C    0  0  0  0  0  0  0  0  0  0  0  0
    1.6367   12.4310   26.1201 N    0  0  0  0  0  0  0  0  0  0  0  0
    1.0606   11.7049   27.1067 C    0  0  0  0  0  0  0  0  0  0  0  0
    1.7601   10.7331   27.8426 C    0  0  0  0  0  0  0  0  0  0  0  0
    0.9925    9.9390   28.9062 C    0  0  0  0  0  0  0  0  0  0  0  0
    3.1419   10.5251   27.5630 C    0  0  0  0  0  0  0  0  0  0  0  0
    3.9805    9.5564   28.4208 C    0  0  0  0  0  0  0  0  0  0  0  0
    6.0483   12.1045   25.7662 C    0  0  0  0  0  0  0  0  0  0  0  0
    7.3541   11.9144   25.2662 C    0  0  0  0  0  0  0  0  0  0  0  0
    8.1960   13.1696   24.9805 C    0  0  0  0  0  0  0  0  0  0  0  0
    8.1544   13.6203   23.5115 C    0  0  0  0  0  0  0  0  0  0  0  0
    7.3250   13.1228   22.7635 O    0  0  0  0  0  0  0  0  0  0  0  0
    8.9894   14.6357   23.0802 N    0  0  0  0  0  0  0  0  0  0  0  0
    9.8281   15.5289   23.9602 C    0  0  0  0  0  0  0  0  0  0  0  0
   11.2706   15.7753   23.4404 C    0  0  0  0  0  0  0  0  0  0  0  0
   11.2836   16.2605   21.9681 C    0  0  0  0  0  0  0  0  0  0  0  0
   10.4408   15.3061   21.0767 C    0  0  0  0  0  0  0  0  0  0  0  0
   10.4031   15.7788   19.6274 C    0  0  0  0  0  0  0  0  0  0  0  0
   10.8221   14.8757   18.7219 N    0  0  0  0  0  0  0  0  0  0  0  0
    9.9008   16.8298   19.2659 O    0  0  0  0  0  0  0  0  0  0  0  0
    9.0057   15.1204   21.6553 C    0  0  0  0  0  0  0  0  0  0  0  0
   10.5329    8.5040   23.1846 H    0  0  0  0  0  0  0  0  0  0  0  0
    8.7803    8.5377   22.8973 H    0  0  0  0  0  0  0  0  0  0  0  0
    9.4365    7.8947   24.4331 H    0  0  0  0  0  0  0  0  0  0  0  0
    7.2180    8.5138   24.9559 H    0  0  0  0  0  0  0  0  0  0  0  0
    4.9803    8.8687   25.7370 H    0  0  0  0  0  0  0  0  0  0  0  0
    3.3587   12.7900   24.9925 H    0  0  0  0  0  0  0  0  0  0  0  0
    0.0111   11.8949   27.3217 H    0  0  0  0  0  0  0  0  0  0  0  0
    1.2748   10.2697   29.9077 H    0  0  0  0  0  0  0  0  0  0  0  0
    1.1990    8.8697   28.8194 H    0  0  0  0  0  0  0  0  0  0  0  0
   -0.0899   10.0576   28.8128 H    0  0  0  0  0  0  0  0  0  0  0  0
    3.9104    8.5405   28.0271 H    0  0  0  0  0  0  0  0  0  0  0  0
    3.6581    9.5401   29.4628 H    0  0  0  0  0  0  0  0  0  0  0  0
    5.0346    9.8394   28.4579 H    0  0  0  0  0  0  0  0  0  0  0  0
    5.7136   13.1167   25.9856 H    0  0  0  0  0  0  0  0  0  0  0  0
    9.2216   12.9853   25.3015 H    0  0  0  0  0  0  0  0  0  0  0  0
    7.8542   13.9940   25.6085 H    0  0  0  0  0  0  0  0  0  0  0  0
    9.9293   15.1589   24.9777 H    0  0  0  0  0  0  0  0  0  0  0  0
    9.3100   16.4881   24.0633 H    0  0  0  0  0  0  0  0  0  0  0  0
   11.8510   14.8529   23.5351 H    0  0  0  0  0  0  0  0  0  0  0  0
   11.7598   16.5205   24.0735 H    0  0  0  0  0  0  0  0  0  0  0  0
   12.3168   16.3066   21.6091 H    0  0  0  0  0  0  0  0  0  0  0  0
   10.8902   17.2807   21.9157 H    0  0  0  0  0  0  0  0  0  0  0  0
   10.9236   14.3245   21.1116 H    0  0  0  0  0  0  0  0  0  0  0  0
   11.0492   13.9247   19.0111 H    0  0  0  0  0  0  0  0  0  0  0  0
   10.8037   15.1133   17.7335 H    0  0  0  0  0  0  0  0  0  0  0  0
    8.4784   14.4396   20.9827 H    0  0  0  0  0  0  0  0  0  0  0  0
    8.4604   16.0667   21.6046 H    0  0  0  0  0  0  0  0  0  0  0  0
 15 16  2  0  0  0  0
  6 15  1  0  0  0  0
  5  6  2  0  0  0  0
  4  5  1  0  0  0  0
  3  4  2  0  0  0  0
  2  3  1  0  0  0  0
  1  2  1  0  0  0  0
 29  1  1  0  0  0  0
 30  1  1  0  0  0  0
 31  1  1  0  0  0  0
 32  4  1  0  0  0  0
 33  5  1  0  0  0  0
  7  6  1  0  0  0  0
  8  7  2  0  0  0  0
  9  8  1  0  0  0  0
 34  8  1  0  0  0  0
 10  9  2  0  0  0  0
 11 10  1  0  0  0  0
 35 10  1  0  0  0  0
 12 11  1  0  0  0  0
 13 11  2  0  0  0  0
 36 12  1  0  0  0  0
 37 12  1  0  0  0  0
 38 12  1  0  0  0  0
 14 13  1  0  0  0  0
 39 14  1  0  0  0  0
 40 14  1  0  0  0  0
 41 14  1  0  0  0  0
 42 15  1  0  0  0  0
 17 16  1  0  0  0  0
 18 17  1  0  0  0  0
 43 17  1  0  0  0  0
 44 17  1  0  0  0  0
 19 18  2  0  0  0  0
 20 18  1  0  0  0  0
 21 20  1  0  0  0  0
 22 21  1  0  0  0  0
 45 21  1  0  0  0  0
 46 21  1  0  0  0  0
 23 22  1  0  0  0  0
 47 22  1  0  0  0  0
 48 22  1  0  0  0  0
 24 23  1  0  0  0  0
 49 23  1  0  0  0  0
 50 23  1  0  0  0  0
 25 24  1  0  0  0  0
 28 24  1  0  0  0  0
 51 24  1  0  0  0  0
 26 25  1  0  0  0  0
 27 25  2  0  0  0  0
 52 26  1  0  0  0  0
 53 26  1  0  0  0  0
 54 28  1  0  0  0  0
 55 28  1  0  0  0  0
 13  7  1  0  0  0  0
 16  3  1  0  0  0  0
 28 20  1  0  0  0  0
M  END
>  <FittedScore>
-35.92

$$$$
