A71EV2A-x4745a_lowest-energy
  FITTED

 41 42     0  0  0  0  0  0  0999 V2000
   11.6537   15.5987   18.9101 O    0  0  0  0  0  0  0  0  0  0  0  0
   10.3020   15.6291   19.3778 S    0  0  0  0  0  0  0  0  0  0  0  0
    9.5289   16.8147   19.1509 O    0  0  0  0  0  0  0  0  0  0  0  0
    9.4962   14.3172   18.6884 N    0  0  0  0  0  0  0  0  0  0  0  0
   10.2780   15.1873   21.1134 C    0  0  0  0  0  0  0  0  0  0  0  0
   11.2425   16.0552   21.9653 C    0  0  0  0  0  0  0  0  0  0  0  0
   11.1901   15.6405   23.4602 C    0  0  0  0  0  0  0  0  0  0  0  0
    9.7316   15.5701   23.9934 C    0  0  0  0  0  0  0  0  0  0  0  0
    8.8448   15.1618   21.7355 C    0  0  0  0  0  0  0  0  0  0  0  0
    8.8419   14.6964   23.1606 N    0  0  0  0  0  0  0  0  0  0  0  0
    8.0735   13.6403   23.6051 C    0  0  0  0  0  0  0  0  0  0  0  0
    7.2713   13.1013   22.8637 O    0  0  0  0  0  0  0  0  0  0  0  0
    8.2327   13.1204   25.0444 C    0  0  0  0  0  0  0  0  0  0  0  0
    7.4592   11.8163   25.3001 C    0  0  0  0  0  0  0  0  0  0  0  0
    7.8600   10.5689   24.7487 C    0  0  0  0  0  0  0  0  0  0  0  0
    9.3742   10.4375   23.7870 S    0  0  0  0  0  0  0  0  0  0  0  0
    9.9046    8.6978   23.7960 C    0  0  0  0  0  0  0  0  0  0  0  0
    6.2411   11.9051   26.0063 C    0  0  0  0  0  0  0  0  0  0  0  0
    5.4377   10.7765   26.1922 C    0  0  0  0  0  0  0  0  0  0  0  0
    5.8322    9.5517   25.6538 C    0  0  0  0  0  0  0  0  0  0  0  0
    7.0262    9.4489   24.9280 C    0  0  0  0  0  0  0  0  0  0  0  0
   10.0294   13.4804   18.9314 H    0  0  0  0  0  0  0  0  0  0  0  0
    9.4044   14.4953   17.6962 H    0  0  0  0  0  0  0  0  0  0  0  0
   10.6606   14.1617   21.1388 H    0  0  0  0  0  0  0  0  0  0  0  0
   12.2652   15.9302   21.6027 H    0  0  0  0  0  0  0  0  0  0  0  0
   10.9830   17.1136   21.8524 H    0  0  0  0  0  0  0  0  0  0  0  0
   11.6765   14.6684   23.5937 H    0  0  0  0  0  0  0  0  0  0  0  0
   11.7602   16.3634   24.0492 H    0  0  0  0  0  0  0  0  0  0  0  0
    9.7753   15.2790   25.0435 H    0  0  0  0  0  0  0  0  0  0  0  0
    9.3108   16.5818   24.0102 H    0  0  0  0  0  0  0  0  0  0  0  0
    8.2042   14.5403   21.1059 H    0  0  0  0  0  0  0  0  0  0  0  0
    8.4002   16.1597   21.6890 H    0  0  0  0  0  0  0  0  0  0  0  0
    9.2853   12.9506   25.2829 H    0  0  0  0  0  0  0  0  0  0  0  0
    7.8942   13.8968   25.7372 H    0  0  0  0  0  0  0  0  0  0  0  0
    9.2541    8.0885   23.1620 H    0  0  0  0  0  0  0  0  0  0  0  0
    9.8884    8.3143   24.8171 H    0  0  0  0  0  0  0  0  0  0  0  0
   10.9314    8.6381   23.4268 H    0  0  0  0  0  0  0  0  0  0  0  0
    5.9016   12.8580   26.4032 H    0  0  0  0  0  0  0  0  0  0  0  0
    4.5019   10.8581   26.7363 H    0  0  0  0  0  0  0  0  0  0  0  0
    5.2062    8.6714   25.7853 H    0  0  0  0  0  0  0  0  0  0  0  0
    7.2795    8.4856   24.4983 H    0  0  0  0  0  0  0  0  0  0  0  0
 10 11  1  0  0  0  0
  8 10  1  0  0  0  0
  7  8  1  0  0  0  0
  6  7  1  0  0  0  0
  5  6  1  0  0  0  0
  2  5  1  0  0  0  0
  1  2  2  0  0  0  0
  3  2  2  0  0  0  0
  4  2  1  0  0  0  0
 22  4  1  0  0  0  0
 23  4  1  0  0  0  0
 24  5  1  0  0  0  0
 25  6  1  0  0  0  0
 26  6  1  0  0  0  0
 27  7  1  0  0  0  0
 28  7  1  0  0  0  0
 29  8  1  0  0  0  0
 30  8  1  0  0  0  0
  9  5  1  0  0  0  0
 31  9  1  0  0  0  0
 32  9  1  0  0  0  0
 12 11  2  0  0  0  0
 13 11  1  0  0  0  0
 33 13  1  0  0  0  0
 34 13  1  0  0  0  0
 14 13  1  0  0  0  0
 15 14  1  0  0  0  0
 21 15  2  0  0  0  0
 16 15  1  0  0  0  0
 17 16  1  0  0  0  0
 35 17  1  0  0  0  0
 36 17  1  0  0  0  0
 37 17  1  0  0  0  0
 18 14  2  0  0  0  0
 38 18  1  0  0  0  0
 19 18  1  0  0  0  0
 39 19  1  0  0  0  0
 20 19  2  0  0  0  0
 40 20  1  0  0  0  0
 41 21  1  0  0  0  0
 10  9  1  0  0  0  0
 21 20  1  0  0  0  0
M  END
>  <FittedScore>
-31.69

$$$$
