A71EV2A-x4745a_best-RMSD
  FITTED

 41 42     0  0  0  0  0  0  0999 V2000
   11.5579   15.4920   18.8691 O    0  0  0  0  0  0  0  0  0  0  0  0
   10.2151   15.5967   19.3576 S    0  0  0  0  0  0  0  0  0  0  0  0
    9.4946   16.8194   19.1435 O    0  0  0  0  0  0  0  0  0  0  0  0
    9.3347   14.3267   18.6762 N    0  0  0  0  0  0  0  0  0  0  0  0
   10.2061   15.1687   21.0935 C    0  0  0  0  0  0  0  0  0  0  0  0
   11.1632   16.0650   21.9261 C    0  0  0  0  0  0  0  0  0  0  0  0
   11.1789   15.6142   23.4101 C    0  0  0  0  0  0  0  0  0  0  0  0
    9.7454   15.5155   23.9981 C    0  0  0  0  0  0  0  0  0  0  0  0
    8.7897   15.1259   21.7527 C    0  0  0  0  0  0  0  0  0  0  0  0
    8.8208   14.6563   23.1808 N    0  0  0  0  0  0  0  0  0  0  0  0
    8.0239   13.6313   23.6532 C    0  0  0  0  0  0  0  0  0  0  0  0
    7.1995   13.0961   22.9314 O    0  0  0  0  0  0  0  0  0  0  0  0
    8.1816   13.1344   25.1041 C    0  0  0  0  0  0  0  0  0  0  0  0
    7.3493   11.8837   25.4361 C    0  0  0  0  0  0  0  0  0  0  0  0
    7.6580   10.6020   24.9004 C    0  0  0  0  0  0  0  0  0  0  0  0
    9.1097   10.3765   23.8574 S    0  0  0  0  0  0  0  0  0  0  0  0
    9.4379    8.5965   23.6752 C    0  0  0  0  0  0  0  0  0  0  0  0
    6.2203   12.0372   26.2698 C    0  0  0  0  0  0  0  0  0  0  0  0
    5.4038   10.9458   26.5773 C    0  0  0  0  0  0  0  0  0  0  0  0
    5.6887    9.6938   26.0274 C    0  0  0  0  0  0  0  0  0  0  0  0
    6.7955    9.5266   25.1884 C    0  0  0  0  0  0  0  0  0  0  0  0
    9.4110   14.3990   17.6656 H    0  0  0  0  0  0  0  0  0  0  0  0
    9.6890   13.4604   19.0872 H    0  0  0  0  0  0  0  0  0  0  0  0
   10.6037   14.1478   21.1224 H    0  0  0  0  0  0  0  0  0  0  0  0
   12.1784   15.9937   21.5312 H    0  0  0  0  0  0  0  0  0  0  0  0
   10.8678   17.1173   21.8499 H    0  0  0  0  0  0  0  0  0  0  0  0
   11.6746   14.6418   23.4965 H    0  0  0  0  0  0  0  0  0  0  0  0
   11.7688   16.3214   23.9958 H    0  0  0  0  0  0  0  0  0  0  0  0
    9.8449   15.1810   25.0298 H    0  0  0  0  0  0  0  0  0  0  0  0
    9.3165   16.5195   24.0696 H    0  0  0  0  0  0  0  0  0  0  0  0
    8.1415   14.5004   21.1383 H    0  0  0  0  0  0  0  0  0  0  0  0
    8.3317   16.1199   21.7204 H    0  0  0  0  0  0  0  0  0  0  0  0
    9.2301   12.9126   25.3261 H    0  0  0  0  0  0  0  0  0  0  0  0
    7.9095   13.9471   25.7843 H    0  0  0  0  0  0  0  0  0  0  0  0
    8.6192    8.1010   23.1492 H    0  0  0  0  0  0  0  0  0  0  0  0
    9.5716    8.1505   24.6616 H    0  0  0  0  0  0  0  0  0  0  0  0
   10.3540    8.4567   23.0995 H    0  0  0  0  0  0  0  0  0  0  0  0
    5.9715   13.0097   26.6904 H    0  0  0  0  0  0  0  0  0  0  0  0
    4.5545   11.0699   27.2426 H    0  0  0  0  0  0  0  0  0  0  0  0
    5.0582    8.8412   26.2646 H    0  0  0  0  0  0  0  0  0  0  0  0
    6.9718    8.5391   24.7803 H    0  0  0  0  0  0  0  0  0  0  0  0
 10 11  1  0  0  0  0
  8 10  1  0  0  0  0
  7  8  1  0  0  0  0
  6  7  1  0  0  0  0
  5  6  1  0  0  0  0
  2  5  1  0  0  0  0
  1  2  2  0  0  0  0
  3  2  2  0  0  0  0
  4  2  1  0  0  0  0
 22  4  1  0  0  0  0
 23  4  1  0  0  0  0
 24  5  1  0  0  0  0
 25  6  1  0  0  0  0
 26  6  1  0  0  0  0
 27  7  1  0  0  0  0
 28  7  1  0  0  0  0
 29  8  1  0  0  0  0
 30  8  1  0  0  0  0
  9  5  1  0  0  0  0
 31  9  1  0  0  0  0
 32  9  1  0  0  0  0
 12 11  2  0  0  0  0
 13 11  1  0  0  0  0
 33 13  1  0  0  0  0
 34 13  1  0  0  0  0
 14 13  1  0  0  0  0
 15 14  1  0  0  0  0
 21 15  2  0  0  0  0
 16 15  1  0  0  0  0
 17 16  1  0  0  0  0
 35 17  1  0  0  0  0
 36 17  1  0  0  0  0
 37 17  1  0  0  0  0
 18 14  2  0  0  0  0
 38 18  1  0  0  0  0
 19 18  1  0  0  0  0
 39 19  1  0  0  0  0
 20 19  2  0  0  0  0
 40 20  1  0  0  0  0
 41 21  1  0  0  0  0
 10  9  1  0  0  0  0
 21 20  1  0  0  0  0
M  END
>  <FittedScore>
-30.83

$$$$
