A71EV2A-x4914a_best-RMSD
  FITTED

 39 40     0  0  0  0  0  0  0999 V2000
    9.9498   16.8230   19.2995 O    0  0  0  0  0  0  0  0  0  0  0  0
   10.3257   15.7156   19.6245 C    0  0  0  0  0  0  0  0  0  0  0  0
   10.7062   14.8296   18.6857 N    0  0  0  0  0  0  0  0  0  0  0  0
   10.3397   15.2208   21.0690 C    0  0  0  0  0  0  0  0  0  0  0  0
   11.4646   15.9508   21.8605 C    0  0  0  0  0  0  0  0  0  0  0  0
   11.4501   15.5672   23.3589 C    0  0  0  0  0  0  0  0  0  0  0  0
   10.0262   15.7017   23.9616 C    0  0  0  0  0  0  0  0  0  0  0  0
    8.9470   15.3506   21.7713 C    0  0  0  0  0  0  0  0  0  0  0  0
    8.9974   14.8999   23.2033 N    0  0  0  0  0  0  0  0  0  0  0  0
    8.2015   13.8899   23.7067 C    0  0  0  0  0  0  0  0  0  0  0  0
    7.3123   13.3884   23.0326 O    0  0  0  0  0  0  0  0  0  0  0  0
    8.5108   13.3373   25.1118 C    0  0  0  0  0  0  0  0  0  0  0  0
    7.7920   12.0342   25.4882 C    0  0  0  0  0  0  0  0  0  0  0  0
    8.1232   10.7863   24.8901 C    0  0  0  0  0  0  0  0  0  0  0  0
    9.4072   10.6829   23.6351 S    0  0  0  0  0  0  0  0  0  0  0  0
    9.9535    8.9563   23.4821 C    0  0  0  0  0  0  0  0  0  0  0  0
    6.8140   12.1423   26.4397 N    0  0  0  0  0  0  0  0  0  0  0  0
    6.1369   11.0252   26.8232 C    0  0  0  0  0  0  0  0  0  0  0  0
    6.4036    9.7652   26.2723 C    0  0  0  0  0  0  0  0  0  0  0  0
    7.3969    9.6457   25.2897 C    0  0  0  0  0  0  0  0  0  0  0  0
   10.8502   13.8556   18.9506 H    0  0  0  0  0  0  0  0  0  0  0  0
   10.5660   15.0697   17.7085 H    0  0  0  0  0  0  0  0  0  0  0  0
   10.5814   14.1499   21.0760 H    0  0  0  0  0  0  0  0  0  0  0  0
   12.4353   15.6939   21.4289 H    0  0  0  0  0  0  0  0  0  0  0  0
   11.3458   17.0350   21.7634 H    0  0  0  0  0  0  0  0  0  0  0  0
   11.8028   14.5395   23.4791 H    0  0  0  0  0  0  0  0  0  0  0  0
   12.1413   16.2091   23.9041 H    0  0  0  0  0  0  0  0  0  0  0  0
   10.0892   15.4533   25.0214 H    0  0  0  0  0  0  0  0  0  0  0  0
    9.7262   16.7570   23.9570 H    0  0  0  0  0  0  0  0  0  0  0  0
    8.2146   14.7922   21.1826 H    0  0  0  0  0  0  0  0  0  0  0  0
    8.6062   16.3895   21.7490 H    0  0  0  0  0  0  0  0  0  0  0  0
    9.5835   13.1611   25.2171 H    0  0  0  0  0  0  0  0  0  0  0  0
    8.2674   14.1090   25.8475 H    0  0  0  0  0  0  0  0  0  0  0  0
   10.8250    8.9136   22.8266 H    0  0  0  0  0  0  0  0  0  0  0  0
    9.1598    8.3439   23.0499 H    0  0  0  0  0  0  0  0  0  0  0  0
   10.2245    8.5706   24.4663 H    0  0  0  0  0  0  0  0  0  0  0  0
    5.3620   11.1160   27.5819 H    0  0  0  0  0  0  0  0  0  0  0  0
    5.8468    8.8899   26.5991 H    0  0  0  0  0  0  0  0  0  0  0  0
    7.5835    8.6710   24.8541 H    0  0  0  0  0  0  0  0  0  0  0  0
  9 10  1  0  0  0  0
  7  9  1  0  0  0  0
  6  7  1  0  0  0  0
  5  6  1  0  0  0  0
  4  5  1  0  0  0  0
  2  4  1  0  0  0  0
  1  2  2  0  0  0  0
  3  2  1  0  0  0  0
 21  3  1  0  0  0  0
 22  3  1  0  0  0  0
 23  4  1  0  0  0  0
 24  5  1  0  0  0  0
 25  5  1  0  0  0  0
 26  6  1  0  0  0  0
 27  6  1  0  0  0  0
 28  7  1  0  0  0  0
 29  7  1  0  0  0  0
  8  4  1  0  0  0  0
 30  8  1  0  0  0  0
 31  8  1  0  0  0  0
 11 10  2  0  0  0  0
 12 10  1  0  0  0  0
 32 12  1  0  0  0  0
 33 12  1  0  0  0  0
 13 12  1  0  0  0  0
 14 13  1  0  0  0  0
 20 14  2  0  0  0  0
 15 14  1  0  0  0  0
 16 15  1  0  0  0  0
 34 16  1  0  0  0  0
 35 16  1  0  0  0  0
 36 16  1  0  0  0  0
 17 13  2  0  0  0  0
 18 17  1  0  0  0  0
 37 18  1  0  0  0  0
 19 18  2  0  0  0  0
 38 19  1  0  0  0  0
 39 20  1  0  0  0  0
  9  8  1  0  0  0  0
 20 19  1  0  0  0  0
M  END
>  <FittedScore>
-29.40

$$$$
