A71EV2A-x4914a_lowest-energy
  FITTED

 39 40     0  0  0  0  0  0  0999 V2000
   10.2405   16.8843   19.2837 O    0  0  0  0  0  0  0  0  0  0  0  0
   10.5524   15.7572   19.6168 C    0  0  0  0  0  0  0  0  0  0  0  0
   10.7926   14.8185   18.6824 N    0  0  0  0  0  0  0  0  0  0  0  0
   10.6060   15.2887   21.0710 C    0  0  0  0  0  0  0  0  0  0  0  0
   11.6334   16.1293   21.8859 C    0  0  0  0  0  0  0  0  0  0  0  0
   11.6223   15.7155   23.3768 C    0  0  0  0  0  0  0  0  0  0  0  0
   10.1838   15.7550   23.9556 C    0  0  0  0  0  0  0  0  0  0  0  0
    9.1897   15.2991   21.7361 C    0  0  0  0  0  0  0  0  0  0  0  0
    9.2079   14.9017   23.1846 N    0  0  0  0  0  0  0  0  0  0  0  0
    8.3651   13.9445   23.7178 C    0  0  0  0  0  0  0  0  0  0  0  0
    7.4435   13.4769   23.0677 O    0  0  0  0  0  0  0  0  0  0  0  0
    8.6533   13.4161   25.1371 C    0  0  0  0  0  0  0  0  0  0  0  0
    7.9237   12.1232   25.5335 C    0  0  0  0  0  0  0  0  0  0  0  0
    8.1791   10.8790   24.8912 C    0  0  0  0  0  0  0  0  0  0  0  0
    9.3504   10.7514   23.5404 S    0  0  0  0  0  0  0  0  0  0  0  0
    9.9930    9.0504   23.5284 C    0  0  0  0  0  0  0  0  0  0  0  0
    7.0212   12.2286   26.5591 N    0  0  0  0  0  0  0  0  0  0  0  0
    6.3568   11.1175   26.9765 C    0  0  0  0  0  0  0  0  0  0  0  0
    6.5501    9.8645   26.3802 C    0  0  0  0  0  0  0  0  0  0  0  0
    7.4611    9.7471   25.3245 C    0  0  0  0  0  0  0  0  0  0  0  0
   10.5964   15.0276   17.7101 H    0  0  0  0  0  0  0  0  0  0  0  0
   10.9275   13.8473   18.9697 H    0  0  0  0  0  0  0  0  0  0  0  0
   10.9643   14.2495   21.1072 H    0  0  0  0  0  0  0  0  0  0  0  0
   12.6356   15.9833   21.4727 H    0  0  0  0  0  0  0  0  0  0  0  0
   11.4113   17.1984   21.8055 H    0  0  0  0  0  0  0  0  0  0  0  0
   12.0358   14.7074   23.4817 H    0  0  0  0  0  0  0  0  0  0  0  0
   12.2700   16.3883   23.9443 H    0  0  0  0  0  0  0  0  0  0  0  0
   10.2522   15.4990   25.0098 H    0  0  0  0  0  0  0  0  0  0  0  0
    9.8242   16.7889   23.9483 H    0  0  0  0  0  0  0  0  0  0  0  0
    8.5486   14.6468   21.1375 H    0  0  0  0  0  0  0  0  0  0  0  0
    8.7447   16.2978   21.6552 H    0  0  0  0  0  0  0  0  0  0  0  0
    9.7240   13.2272   25.2593 H    0  0  0  0  0  0  0  0  0  0  0  0
    8.4065   14.2067   25.8534 H    0  0  0  0  0  0  0  0  0  0  0  0
    9.2230    8.3572   23.1897 H    0  0  0  0  0  0  0  0  0  0  0  0
   10.3256    8.7639   24.5313 H    0  0  0  0  0  0  0  0  0  0  0  0
   10.8408    8.9922   22.8457 H    0  0  0  0  0  0  0  0  0  0  0  0
    5.6488   11.2059   27.7941 H    0  0  0  0  0  0  0  0  0  0  0  0
    5.9957    8.9946   26.7274 H    0  0  0  0  0  0  0  0  0  0  0  0
    7.5907    8.7791   24.8537 H    0  0  0  0  0  0  0  0  0  0  0  0
  9 10  1  0  0  0  0
  7  9  1  0  0  0  0
  6  7  1  0  0  0  0
  5  6  1  0  0  0  0
  4  5  1  0  0  0  0
  2  4  1  0  0  0  0
  1  2  2  0  0  0  0
  3  2  1  0  0  0  0
 21  3  1  0  0  0  0
 22  3  1  0  0  0  0
 23  4  1  0  0  0  0
 24  5  1  0  0  0  0
 25  5  1  0  0  0  0
 26  6  1  0  0  0  0
 27  6  1  0  0  0  0
 28  7  1  0  0  0  0
 29  7  1  0  0  0  0
  8  4  1  0  0  0  0
 30  8  1  0  0  0  0
 31  8  1  0  0  0  0
 11 10  2  0  0  0  0
 12 10  1  0  0  0  0
 32 12  1  0  0  0  0
 33 12  1  0  0  0  0
 13 12  1  0  0  0  0
 14 13  1  0  0  0  0
 20 14  2  0  0  0  0
 15 14  1  0  0  0  0
 16 15  1  0  0  0  0
 34 16  1  0  0  0  0
 35 16  1  0  0  0  0
 36 16  1  0  0  0  0
 17 13  2  0  0  0  0
 18 17  1  0  0  0  0
 37 18  1  0  0  0  0
 19 18  2  0  0  0  0
 38 19  1  0  0  0  0
 39 20  1  0  0  0  0
  9  8  1  0  0  0  0
 20 19  1  0  0  0  0
M  END
>  <FittedScore>
-30.22

$$$$
