A71EV2A-x4017b_lowest-energy
  FITTED

 41 43     0  0  0  0  0  0  0999 V2000
    9.9349   16.8039   19.1940 O    0  0  0  0  0  0  0  0  0  0  0  0
   10.5565   15.8147   19.5455 C    0  0  0  0  0  0  0  0  0  0  0  0
   10.7031   14.7801   18.7095 N    0  0  0  0  0  0  0  0  0  0  0  0
   11.0162   15.5281   20.9688 C    0  0  0  0  0  0  0  0  0  0  0  0
   11.7874   16.7369   21.5635 C    0  0  0  0  0  0  0  0  0  0  0  0
   12.1319   16.4914   23.0420 C    0  0  0  0  0  0  0  0  0  0  0  0
   10.8956   16.0659   23.8666 C    0  0  0  0  0  0  0  0  0  0  0  0
    9.8187   15.1041   21.8761 C    0  0  0  0  0  0  0  0  0  0  0  0
   10.2522   14.8402   23.2932 N    0  0  0  0  0  0  0  0  0  0  0  0
   10.0568   13.6953   24.0348 C    0  0  0  0  0  0  0  0  0  0  0  0
   10.2896   13.6439   25.2371 O    0  0  0  0  0  0  0  0  0  0  0  0
    9.6735   12.5803   23.3524 N    0  0  0  0  0  0  0  0  0  0  0  0
    9.0893   11.3903   23.9005 C    0  0  0  0  0  0  0  0  0  0  0  0
    9.4698   10.1267   23.4046 C    0  0  0  0  0  0  0  0  0  0  0  0
    8.8550    8.9529   23.8797 C    0  0  0  0  0  0  0  0  0  0  0  0
    7.8618    9.0256   24.8724 C    0  0  0  0  0  0  0  0  0  0  0  0
    7.5047   10.2798   25.3741 C    0  0  0  0  0  0  0  0  0  0  0  0
    6.5755   10.6394   26.3105 N    0  0  0  0  0  0  0  0  0  0  0  0
    5.6211    9.7537   26.9760 C    0  0  0  0  0  0  0  0  0  0  0  0
    8.0805   11.4287   24.8856 C    0  0  0  0  0  0  0  0  0  0  0  0
    7.4201   12.4793   25.5054 C    0  0  0  0  0  0  0  0  0  0  0  0
    6.3926   11.9886   26.4436 N    0  0  0  0  0  0  0  0  0  0  0  0
   11.0370   13.8903   19.0652 H    0  0  0  0  0  0  0  0  0  0  0  0
   10.5312   14.8752   17.7211 H    0  0  0  0  0  0  0  0  0  0  0  0
   11.7296   14.6934   20.9609 H    0  0  0  0  0  0  0  0  0  0  0  0
   12.7101   16.8981   20.9991 H    0  0  0  0  0  0  0  0  0  0  0  0
   11.2038   17.6598   21.4892 H    0  0  0  0  0  0  0  0  0  0  0  0
   12.9104   15.7220   23.1194 H    0  0  0  0  0  0  0  0  0  0  0  0
   12.5551   17.4062   23.4723 H    0  0  0  0  0  0  0  0  0  0  0  0
   11.2214   15.9375   24.8999 H    0  0  0  0  0  0  0  0  0  0  0  0
   10.1653   16.8790   23.8899 H    0  0  0  0  0  0  0  0  0  0  0  0
    9.3185   14.2469   21.4180 H    0  0  0  0  0  0  0  0  0  0  0  0
    9.0609   15.8963   21.8795 H    0  0  0  0  0  0  0  0  0  0  0  0
    9.8966   12.5129   22.3612 H    0  0  0  0  0  0  0  0  0  0  0  0
   10.2288   10.0516   22.6303 H    0  0  0  0  0  0  0  0  0  0  0  0
    9.1409    7.9881   23.4668 H    0  0  0  0  0  0  0  0  0  0  0  0
    7.3791    8.1178   25.2299 H    0  0  0  0  0  0  0  0  0  0  0  0
    6.1357    8.9108   27.4349 H    0  0  0  0  0  0  0  0  0  0  0  0
    4.8947    9.3554   26.2633 H    0  0  0  0  0  0  0  0  0  0  0  0
    5.0612   10.2571   27.7694 H    0  0  0  0  0  0  0  0  0  0  0  0
    7.5703   13.5408   25.3533 H    0  0  0  0  0  0  0  0  0  0  0  0
 10 12  1  0  0  0  0
  9 10  1  0  0  0  0
  7  9  1  0  0  0  0
  6  7  1  0  0  0  0
  5  6  1  0  0  0  0
  4  5  1  0  0  0  0
  2  4  1  0  0  0  0
  1  2  2  0  0  0  0
  3  2  1  0  0  0  0
 23  3  1  0  0  0  0
 24  3  1  0  0  0  0
 25  4  1  0  0  0  0
 26  5  1  0  0  0  0
 27  5  1  0  0  0  0
 28  6  1  0  0  0  0
 29  6  1  0  0  0  0
 30  7  1  0  0  0  0
 31  7  1  0  0  0  0
  8  4  1  0  0  0  0
 32  8  1  0  0  0  0
 33  8  1  0  0  0  0
 11 10  2  0  0  0  0
 34 12  1  0  0  0  0
 13 12  1  0  0  0  0
 14 13  2  0  0  0  0
 35 14  1  0  0  0  0
 15 14  1  0  0  0  0
 36 15  1  0  0  0  0
 16 15  2  0  0  0  0
 37 16  1  0  0  0  0
 17 16  1  0  0  0  0
 18 17  1  0  0  0  0
 22 18  1  0  0  0  0
 19 18  1  0  0  0  0
 38 19  1  0  0  0  0
 39 19  1  0  0  0  0
 40 19  1  0  0  0  0
 20 13  1  0  0  0  0
 21 20  1  0  0  0  0
 41 21  1  0  0  0  0
  9  8  1  0  0  0  0
 20 17  2  0  0  0  0
 22 21  2  0  0  0  0
M  END
>  <FittedScore>
-36.48

$$$$
