A71EV2A-x4368a_lowest-energy
  FITTED

 43 44     0  0  0  0  0  0  0999 V2000
    9.8759   16.7195   19.3228 O    0  0  0  0  0  0  0  0  0  0  0  0
   10.2950   15.6342   19.6875 C    0  0  0  0  0  0  0  0  0  0  0  0
   10.7321   14.7298   18.7902 N    0  0  0  0  0  0  0  0  0  0  0  0
   10.2699   15.1682   21.1411 C    0  0  0  0  0  0  0  0  0  0  0  0
   11.1467   16.0909   22.0319 C    0  0  0  0  0  0  0  0  0  0  0  0
   11.0065   15.7211   23.5267 C    0  0  0  0  0  0  0  0  0  0  0  0
    9.5154   15.6597   23.9521 C    0  0  0  0  0  0  0  0  0  0  0  0
    8.8022   15.0391   21.6697 C    0  0  0  0  0  0  0  0  0  0  0  0
    8.7020   14.6975   23.1303 N    0  0  0  0  0  0  0  0  0  0  0  0
    7.8718   13.7082   23.6283 C    0  0  0  0  0  0  0  0  0  0  0  0
    7.1611   13.0551   22.8844 O    0  0  0  0  0  0  0  0  0  0  0  0
    7.8144   13.4451   25.1476 C    0  0  0  0  0  0  0  0  0  0  0  0
    6.9294   12.2659   25.5991 C    0  0  0  0  0  0  0  0  0  0  0  0
    5.6960   12.5678   26.2166 C    0  0  0  0  0  0  0  0  0  0  0  0
    4.8751   11.5547   26.7241 C    0  0  0  0  0  0  0  0  0  0  0  0
    5.2697   10.2178   26.6137 C    0  0  0  0  0  0  0  0  0  0  0  0
    6.4802    9.8998   25.9888 C    0  0  0  0  0  0  0  0  0  0  0  0
    7.3255   10.9061   25.4647 C    0  0  0  0  0  0  0  0  0  0  0  0
    8.6674   10.5170   24.8155 C    0  0  0  0  0  0  0  0  0  0  0  0
    8.7088    9.1514   24.3229 O    0  0  0  0  0  0  0  0  0  0  0  0
    9.8697    8.7492   23.5659 C    0  0  0  0  0  0  0  0  0  0  0  0
   10.9773   13.7823   19.0817 H    0  0  0  0  0  0  0  0  0  0  0  0
   10.6454   14.9427   17.8018 H    0  0  0  0  0  0  0  0  0  0  0  0
   10.7123   14.1668   21.1941 H    0  0  0  0  0  0  0  0  0  0  0  0
   12.1949   16.0080   21.7357 H    0  0  0  0  0  0  0  0  0  0  0  0
   10.8613   17.1378   21.8955 H    0  0  0  0  0  0  0  0  0  0  0  0
   11.4894   14.7608   23.7295 H    0  0  0  0  0  0  0  0  0  0  0  0
   11.5175   16.4717   24.1319 H    0  0  0  0  0  0  0  0  0  0  0  0
    9.4983   15.4526   25.0238 H    0  0  0  0  0  0  0  0  0  0  0  0
    9.0700   16.6588   23.8587 H    0  0  0  0  0  0  0  0  0  0  0  0
    8.3096   14.2933   21.0444 H    0  0  0  0  0  0  0  0  0  0  0  0
    8.2571   15.9724   21.4955 H    0  0  0  0  0  0  0  0  0  0  0  0
    8.8247   13.2688   25.5323 H    0  0  0  0  0  0  0  0  0  0  0  0
    7.4694   14.3592   25.6407 H    0  0  0  0  0  0  0  0  0  0  0  0
    5.3690   13.5992   26.3174 H    0  0  0  0  0  0  0  0  0  0  0  0
    3.9363   11.8081   27.2079 H    0  0  0  0  0  0  0  0  0  0  0  0
    4.6413    9.4292   27.0203 H    0  0  0  0  0  0  0  0  0  0  0  0
    6.7566    8.8510   25.9271 H    0  0  0  0  0  0  0  0  0  0  0  0
    8.8904   11.1650   23.9661 H    0  0  0  0  0  0  0  0  0  0  0  0
    9.4748   10.6414   25.5416 H    0  0  0  0  0  0  0  0  0  0  0  0
   10.0278    9.4140   22.7095 H    0  0  0  0  0  0  0  0  0  0  0  0
    9.7251    7.7412   23.1780 H    0  0  0  0  0  0  0  0  0  0  0  0
   10.7583    8.7590   24.2005 H    0  0  0  0  0  0  0  0  0  0  0  0
  9 10  1  0  0  0  0
  7  9  1  0  0  0  0
  6  7  1  0  0  0  0
  5  6  1  0  0  0  0
  4  5  1  0  0  0  0
  2  4  1  0  0  0  0
  1  2  2  0  0  0  0
  3  2  1  0  0  0  0
 22  3  1  0  0  0  0
 23  3  1  0  0  0  0
 24  4  1  0  0  0  0
 25  5  1  0  0  0  0
 26  5  1  0  0  0  0
 27  6  1  0  0  0  0
 28  6  1  0  0  0  0
 29  7  1  0  0  0  0
 30  7  1  0  0  0  0
  8  4  1  0  0  0  0
 31  8  1  0  0  0  0
 32  8  1  0  0  0  0
 11 10  2  0  0  0  0
 12 10  1  0  0  0  0
 33 12  1  0  0  0  0
 34 12  1  0  0  0  0
 13 12  1  0  0  0  0
 14 13  1  0  0  0  0
 35 14  1  0  0  0  0
 15 14  2  0  0  0  0
 36 15  1  0  0  0  0
 16 15  1  0  0  0  0
 37 16  1  0  0  0  0
 17 16  2  0  0  0  0
 38 17  1  0  0  0  0
 18 17  1  0  0  0  0
 19 18  1  0  0  0  0
 39 19  1  0  0  0  0
 40 19  1  0  0  0  0
 20 19  1  0  0  0  0
 21 20  1  0  0  0  0
 41 21  1  0  0  0  0
 42 21  1  0  0  0  0
 43 21  1  0  0  0  0
  9  8  1  0  0  0  0
 18 13  2  0  0  0  0
M  END
>  <FittedScore>
-33.85

$$$$
