A71EV2A-x4368a_best-RMSD
  FITTED

 43 44     0  0  0  0  0  0  0999 V2000
    9.8078   16.6835   19.2872 O    0  0  0  0  0  0  0  0  0  0  0  0
   10.2510   15.6069   19.6396 C    0  0  0  0  0  0  0  0  0  0  0  0
   10.7172   14.7173   18.7443 N    0  0  0  0  0  0  0  0  0  0  0  0
   10.2622   15.1411   21.0910 C    0  0  0  0  0  0  0  0  0  0  0  0
   11.1927   16.0536   21.9413 C    0  0  0  0  0  0  0  0  0  0  0  0
   11.1537   15.6222   23.4233 C    0  0  0  0  0  0  0  0  0  0  0  0
    9.6940   15.5436   23.9495 C    0  0  0  0  0  0  0  0  0  0  0  0
    8.8198   15.0505   21.6905 C    0  0  0  0  0  0  0  0  0  0  0  0
    8.7857   14.6545   23.1422 N    0  0  0  0  0  0  0  0  0  0  0  0
    7.9463   13.6740   23.6413 C    0  0  0  0  0  0  0  0  0  0  0  0
    7.1927   13.0558   22.9075 O    0  0  0  0  0  0  0  0  0  0  0  0
    7.9555   13.3598   25.1484 C    0  0  0  0  0  0  0  0  0  0  0  0
    7.0446   12.2011   25.6002 C    0  0  0  0  0  0  0  0  0  0  0  0
    5.8347   12.5283   26.2472 C    0  0  0  0  0  0  0  0  0  0  0  0
    4.9769   11.5265   26.7201 C    0  0  0  0  0  0  0  0  0  0  0  0
    5.3119   10.1826   26.5466 C    0  0  0  0  0  0  0  0  0  0  0  0
    6.5014    9.8397   25.8924 C    0  0  0  0  0  0  0  0  0  0  0  0
    7.3820   10.8321   25.4061 C    0  0  0  0  0  0  0  0  0  0  0  0
    8.6848   10.4329   24.6877 C    0  0  0  0  0  0  0  0  0  0  0  0
    8.7893    9.0237   24.3624 O    0  0  0  0  0  0  0  0  0  0  0  0
    9.9200    8.6265   23.5575 C    0  0  0  0  0  0  0  0  0  0  0  0
   10.7090   14.9532   17.7659 H    0  0  0  0  0  0  0  0  0  0  0  0
   10.9672   13.7752   19.0307 H    0  0  0  0  0  0  0  0  0  0  0  0
   10.6830   14.1296   21.1446 H    0  0  0  0  0  0  0  0  0  0  0  0
   12.2170   15.9927   21.5638 H    0  0  0  0  0  0  0  0  0  0  0  0
   10.8818   17.1007   21.8550 H    0  0  0  0  0  0  0  0  0  0  0  0
   11.6474   14.6540   23.5384 H    0  0  0  0  0  0  0  0  0  0  0  0
   11.7198   16.3449   24.0172 H    0  0  0  0  0  0  0  0  0  0  0  0
    9.7684   15.2540   24.9964 H    0  0  0  0  0  0  0  0  0  0  0  0
    9.2642   16.5517   23.9653 H    0  0  0  0  0  0  0  0  0  0  0  0
    8.2629   14.3537   21.0605 H    0  0  0  0  0  0  0  0  0  0  0  0
    8.3092   16.0141   21.5818 H    0  0  0  0  0  0  0  0  0  0  0  0
    8.9749   13.1317   25.4702 H    0  0  0  0  0  0  0  0  0  0  0  0
    7.6787   14.2700   25.6918 H    0  0  0  0  0  0  0  0  0  0  0  0
    5.5515   13.5684   26.3916 H    0  0  0  0  0  0  0  0  0  0  0  0
    4.0536   11.7995   27.2245 H    0  0  0  0  0  0  0  0  0  0  0  0
    4.6516    9.4020   26.9176 H    0  0  0  0  0  0  0  0  0  0  0  0
    6.7259    8.7840   25.7778 H    0  0  0  0  0  0  0  0  0  0  0  0
    8.7692   10.9777   23.7458 H    0  0  0  0  0  0  0  0  0  0  0  0
    9.5430   10.7097   25.3068 H    0  0  0  0  0  0  0  0  0  0  0  0
    9.8249    7.5663   23.3078 H    0  0  0  0  0  0  0  0  0  0  0  0
   10.8529    8.7837   24.1053 H    0  0  0  0  0  0  0  0  0  0  0  0
    9.9577    9.1955   22.6241 H    0  0  0  0  0  0  0  0  0  0  0  0
  9 10  1  0  0  0  0
  7  9  1  0  0  0  0
  6  7  1  0  0  0  0
  5  6  1  0  0  0  0
  4  5  1  0  0  0  0
  2  4  1  0  0  0  0
  1  2  2  0  0  0  0
  3  2  1  0  0  0  0
 22  3  1  0  0  0  0
 23  3  1  0  0  0  0
 24  4  1  0  0  0  0
 25  5  1  0  0  0  0
 26  5  1  0  0  0  0
 27  6  1  0  0  0  0
 28  6  1  0  0  0  0
 29  7  1  0  0  0  0
 30  7  1  0  0  0  0
  8  4  1  0  0  0  0
 31  8  1  0  0  0  0
 32  8  1  0  0  0  0
 11 10  2  0  0  0  0
 12 10  1  0  0  0  0
 33 12  1  0  0  0  0
 34 12  1  0  0  0  0
 13 12  1  0  0  0  0
 14 13  1  0  0  0  0
 35 14  1  0  0  0  0
 15 14  2  0  0  0  0
 36 15  1  0  0  0  0
 16 15  1  0  0  0  0
 37 16  1  0  0  0  0
 17 16  2  0  0  0  0
 38 17  1  0  0  0  0
 18 17  1  0  0  0  0
 19 18  1  0  0  0  0
 39 19  1  0  0  0  0
 40 19  1  0  0  0  0
 20 19  1  0  0  0  0
 21 20  1  0  0  0  0
 41 21  1  0  0  0  0
 42 21  1  0  0  0  0
 43 21  1  0  0  0  0
  9  8  1  0  0  0  0
 18 13  2  0  0  0  0
M  END
>  <FittedScore>
-33.90

$$$$
