A71EV2A-x3981a_lowest-energy
  FITTED

 52 54     0  0  0  0  0  0  0999 V2000
    7.0030   13.1147   22.6679 O    0  0  0  0  0  0  0  0  0  0  0  0
    7.8247   13.5621   23.4536 C    0  0  0  0  0  0  0  0  0  0  0  0
    8.6395   14.6238   23.1052 N    0  0  0  0  0  0  0  0  0  0  0  0
    9.5120   15.4497   24.0140 C    0  0  0  0  0  0  0  0  0  0  0  0
   11.0004   15.4442   23.5765 C    0  0  0  0  0  0  0  0  0  0  0  0
   11.1530   15.9463   22.1132 C    0  0  0  0  0  0  0  0  0  0  0  0
    8.7218   15.1562   21.7063 C    0  0  0  0  0  0  0  0  0  0  0  0
   10.1882   15.1790   21.1612 C    0  0  0  0  0  0  0  0  0  0  0  0
   10.2645   15.7194   19.7349 C    0  0  0  0  0  0  0  0  0  0  0  0
    9.7904   16.7882   19.3998 O    0  0  0  0  0  0  0  0  0  0  0  0
   10.7416   14.8648   18.8074 N    0  0  0  0  0  0  0  0  0  0  0  0
    7.9677   12.8594   24.8246 C    0  0  0  0  0  0  0  0  0  0  0  0
    8.3113   11.3844   24.5338 C    0  0  0  0  0  0  0  0  0  0  0  0
    9.5052   11.0969   23.8317 C    0  0  0  0  0  0  0  0  0  0  0  0
    9.8050    9.7864   23.4354 C    0  0  0  0  0  0  0  0  0  0  0  0
    8.9274    8.7430   23.7409 C    0  0  0  0  0  0  0  0  0  0  0  0
    7.7544    9.0119   24.4569 C    0  0  0  0  0  0  0  0  0  0  0  0
    7.4453   10.3151   24.8523 C    0  0  0  0  0  0  0  0  0  0  0  0
    6.7630   13.1640   25.7908 C    0  0  0  0  0  0  0  0  0  0  0  0
    6.2908   14.6471   25.9371 C    0  0  0  0  0  0  0  0  0  0  0  0
    5.4980   15.2121   24.7508 C    0  0  0  0  0  0  0  0  0  0  0  0
    4.3521   14.5360   24.2803 C    0  0  0  0  0  0  0  0  0  0  0  0
    3.7597   14.8974   23.0642 C    0  0  0  0  0  0  0  0  0  0  0  0
    4.2990   15.9485   22.3120 C    0  0  0  0  0  0  0  0  0  0  0  0
    5.4057   16.6605   22.7943 C    0  0  0  0  0  0  0  0  0  0  0  0
    5.9871   16.3140   24.0201 C    0  0  0  0  0  0  0  0  0  0  0  0
    9.1505   16.4836   24.0120 H    0  0  0  0  0  0  0  0  0  0  0  0
    9.4603   15.1690   25.0624 H    0  0  0  0  0  0  0  0  0  0  0  0
   11.5787   16.0887   24.2449 H    0  0  0  0  0  0  0  0  0  0  0  0
   11.4069   14.4316   23.6763 H    0  0  0  0  0  0  0  0  0  0  0  0
   10.9427   17.0204   22.0711 H    0  0  0  0  0  0  0  0  0  0  0  0
   12.1904   15.8062   21.7929 H    0  0  0  0  0  0  0  0  0  0  0  0
    8.2845   16.1588   21.6825 H    0  0  0  0  0  0  0  0  0  0  0  0
    8.1248   14.5709   21.0006 H    0  0  0  0  0  0  0  0  0  0  0  0
   10.5253   14.1358   21.1631 H    0  0  0  0  0  0  0  0  0  0  0  0
   10.9329   13.8952   19.0503 H    0  0  0  0  0  0  0  0  0  0  0  0
   10.7190   15.1267   17.8303 H    0  0  0  0  0  0  0  0  0  0  0  0
    8.8454   13.1816   25.3798 H    0  0  0  0  0  0  0  0  0  0  0  0
   10.2004   11.8927   23.5691 H    0  0  0  0  0  0  0  0  0  0  0  0
   10.7174    9.5868   22.8791 H    0  0  0  0  0  0  0  0  0  0  0  0
    9.1536    7.7282   23.4253 H    0  0  0  0  0  0  0  0  0  0  0  0
    7.0703    8.2027   24.6994 H    0  0  0  0  0  0  0  0  0  0  0  0
    6.5145   10.4663   25.3876 H    0  0  0  0  0  0  0  0  0  0  0  0
    7.0401   12.8019   26.7830 H    0  0  0  0  0  0  0  0  0  0  0  0
    5.8963   12.5764   25.4923 H    0  0  0  0  0  0  0  0  0  0  0  0
    7.1589   15.2714   26.1631 H    0  0  0  0  0  0  0  0  0  0  0  0
    5.6507   14.7142   26.8203 H    0  0  0  0  0  0  0  0  0  0  0  0
    3.9310   13.7026   24.8372 H    0  0  0  0  0  0  0  0  0  0  0  0
    2.8943   14.3511   22.6993 H    0  0  0  0  0  0  0  0  0  0  0  0
    3.8497   16.2187   21.3608 H    0  0  0  0  0  0  0  0  0  0  0  0
    5.8237   17.4752   22.2086 H    0  0  0  0  0  0  0  0  0  0  0  0
    6.8464   16.8753   24.3732 H    0  0  0  0  0  0  0  0  0  0  0  0
  2  1  2  0  0  0  0
  3  2  1  0  0  0  0
  4  3  1  0  0  0  0
 27  4  1  0  0  0  0
 28  4  1  0  0  0  0
  5  4  1  0  0  0  0
 29  5  1  0  0  0  0
 30  5  1  0  0  0  0
  6  5  1  0  0  0  0
 31  6  1  0  0  0  0
 32  6  1  0  0  0  0
  7  3  1  0  0  0  0
 33  7  1  0  0  0  0
 34  7  1  0  0  0  0
  8  6  1  0  0  0  0
  9  8  1  0  0  0  0
 35  8  1  0  0  0  0
 10  9  2  0  0  0  0
 11  9  1  0  0  0  0
 36 11  1  0  0  0  0
 37 11  1  0  0  0  0
 12  2  1  0  0  0  0
 19 12  1  0  0  0  0
 38 12  1  0  0  0  0
 13 12  1  0  0  0  0
 18 13  2  0  0  0  0
 14 13  1  0  0  0  0
 39 14  1  0  0  0  0
 15 14  2  0  0  0  0
 40 15  1  0  0  0  0
 16 15  1  0  0  0  0
 41 16  1  0  0  0  0
 17 16  2  0  0  0  0
 42 17  1  0  0  0  0
 43 18  1  0  0  0  0
 44 19  1  0  0  0  0
 45 19  1  0  0  0  0
 20 19  1  0  0  0  0
 46 20  1  0  0  0  0
 47 20  1  0  0  0  0
 21 20  1  0  0  0  0
 26 21  2  0  0  0  0
 22 21  1  0  0  0  0
 48 22  1  0  0  0  0
 23 22  2  0  0  0  0
 49 23  1  0  0  0  0
 24 23  1  0  0  0  0
 50 24  1  0  0  0  0
 25 24  2  0  0  0  0
 51 25  1  0  0  0  0
 52 26  1  0  0  0  0
  8  7  1  0  0  0  0
 18 17  1  0  0  0  0
 26 25  1  0  0  0  0
M  END
>  <FittedScore>
-37.10

$$$$
