A71EV2A-x3981a_best-RMSD
  FITTED

 52 54     0  0  0  0  0  0  0999 V2000
    6.9789   13.1913   22.8831 O    0  0  0  0  0  0  0  0  0  0  0  0
    7.8582   13.6146   23.6219 C    0  0  0  0  0  0  0  0  0  0  0  0
    8.6936   14.6413   23.2219 N    0  0  0  0  0  0  0  0  0  0  0  0
    9.6662   15.4050   24.0762 C    0  0  0  0  0  0  0  0  0  0  0  0
   11.1264   15.3173   23.5563 C    0  0  0  0  0  0  0  0  0  0  0  0
   11.2269   15.8435   22.0987 C    0  0  0  0  0  0  0  0  0  0  0  0
    8.7415   15.1581   21.8092 C    0  0  0  0  0  0  0  0  0  0  0  0
   10.1778   15.1457   21.1850 C    0  0  0  0  0  0  0  0  0  0  0  0
   10.2280   15.7009   19.7556 C    0  0  0  0  0  0  0  0  0  0  0  0
    9.7872   16.7880   19.4321 O    0  0  0  0  0  0  0  0  0  0  0  0
   10.7434   14.8720   18.8236 N    0  0  0  0  0  0  0  0  0  0  0  0
    8.1041   12.8463   24.9466 C    0  0  0  0  0  0  0  0  0  0  0  0
    8.3723   11.3725   24.5886 C    0  0  0  0  0  0  0  0  0  0  0  0
    9.4932   11.0733   23.7806 C    0  0  0  0  0  0  0  0  0  0  0  0
    9.7290    9.7633   23.3392 C    0  0  0  0  0  0  0  0  0  0  0  0
    8.8570    8.7337   23.7099 C    0  0  0  0  0  0  0  0  0  0  0  0
    7.7506    9.0169   24.5208 C    0  0  0  0  0  0  0  0  0  0  0  0
    7.5082   10.3203   24.9628 C    0  0  0  0  0  0  0  0  0  0  0  0
    6.9767   13.1433   25.9940 C    0  0  0  0  0  0  0  0  0  0  0  0
    6.8415   14.6319   26.4128 C    0  0  0  0  0  0  0  0  0  0  0  0
    5.8594   14.8875   27.5567 C    0  0  0  0  0  0  0  0  0  0  0  0
    6.3179   15.3527   28.8059 C    0  0  0  0  0  0  0  0  0  0  0  0
    5.4125   15.5822   29.8532 C    0  0  0  0  0  0  0  0  0  0  0  0
    4.0420   15.3462   29.6642 C    0  0  0  0  0  0  0  0  0  0  0  0
    3.5758   14.8864   28.4243 C    0  0  0  0  0  0  0  0  0  0  0  0
    4.4789   14.6615   27.3742 C    0  0  0  0  0  0  0  0  0  0  0  0
    9.3581   16.4554   24.0943 H    0  0  0  0  0  0  0  0  0  0  0  0
    9.6662   15.1237   25.1244 H    0  0  0  0  0  0  0  0  0  0  0  0
   11.7824   15.9082   24.2005 H    0  0  0  0  0  0  0  0  0  0  0  0
   11.4750   14.2806   23.6046 H    0  0  0  0  0  0  0  0  0  0  0  0
   11.0865   16.9275   22.0874 H    0  0  0  0  0  0  0  0  0  0  0  0
   12.2358   15.6478   21.7145 H    0  0  0  0  0  0  0  0  0  0  0  0
    8.3307   16.1719   21.8024 H    0  0  0  0  0  0  0  0  0  0  0  0
    8.0963   14.5828   21.1396 H    0  0  0  0  0  0  0  0  0  0  0  0
   10.4591   14.0871   21.1552 H    0  0  0  0  0  0  0  0  0  0  0  0
   10.9651   13.9071   19.0695 H    0  0  0  0  0  0  0  0  0  0  0  0
   10.7228   15.1426   17.8480 H    0  0  0  0  0  0  0  0  0  0  0  0
    9.0282   13.1253   25.4493 H    0  0  0  0  0  0  0  0  0  0  0  0
   10.1762   11.8611   23.4723 H    0  0  0  0  0  0  0  0  0  0  0  0
   10.5844    9.5563   22.7009 H    0  0  0  0  0  0  0  0  0  0  0  0
    9.0365    7.7187   23.3618 H    0  0  0  0  0  0  0  0  0  0  0  0
    7.0717    8.2174   24.8062 H    0  0  0  0  0  0  0  0  0  0  0  0
    6.6261   10.4920   25.5744 H    0  0  0  0  0  0  0  0  0  0  0  0
    7.1741   12.5580   26.8989 H    0  0  0  0  0  0  0  0  0  0  0  0
    6.0170   12.8038   25.5982 H    0  0  0  0  0  0  0  0  0  0  0  0
    6.5133   15.2219   25.5557 H    0  0  0  0  0  0  0  0  0  0  0  0
    7.8288   15.0165   26.6809 H    0  0  0  0  0  0  0  0  0  0  0  0
    7.3764   15.5422   28.9723 H    0  0  0  0  0  0  0  0  0  0  0  0
    5.7729   15.9455   30.8131 H    0  0  0  0  0  0  0  0  0  0  0  0
    3.3424   15.5218   30.4775 H    0  0  0  0  0  0  0  0  0  0  0  0
    2.5119   14.7070   28.2816 H    0  0  0  0  0  0  0  0  0  0  0  0
    4.1010   14.3075   26.4169 H    0  0  0  0  0  0  0  0  0  0  0  0
  2  1  2  0  0  0  0
  3  2  1  0  0  0  0
  4  3  1  0  0  0  0
 27  4  1  0  0  0  0
 28  4  1  0  0  0  0
  5  4  1  0  0  0  0
 29  5  1  0  0  0  0
 30  5  1  0  0  0  0
  6  5  1  0  0  0  0
 31  6  1  0  0  0  0
 32  6  1  0  0  0  0
  7  3  1  0  0  0  0
 33  7  1  0  0  0  0
 34  7  1  0  0  0  0
  8  6  1  0  0  0  0
  9  8  1  0  0  0  0
 35  8  1  0  0  0  0
 10  9  2  0  0  0  0
 11  9  1  0  0  0  0
 36 11  1  0  0  0  0
 37 11  1  0  0  0  0
 12  2  1  0  0  0  0
 19 12  1  0  0  0  0
 38 12  1  0  0  0  0
 13 12  1  0  0  0  0
 18 13  2  0  0  0  0
 14 13  1  0  0  0  0
 39 14  1  0  0  0  0
 15 14  2  0  0  0  0
 40 15  1  0  0  0  0
 16 15  1  0  0  0  0
 41 16  1  0  0  0  0
 17 16  2  0  0  0  0
 42 17  1  0  0  0  0
 43 18  1  0  0  0  0
 44 19  1  0  0  0  0
 45 19  1  0  0  0  0
 20 19  1  0  0  0  0
 46 20  1  0  0  0  0
 47 20  1  0  0  0  0
 21 20  1  0  0  0  0
 26 21  2  0  0  0  0
 22 21  1  0  0  0  0
 48 22  1  0  0  0  0
 23 22  2  0  0  0  0
 49 23  1  0  0  0  0
 24 23  1  0  0  0  0
 50 24  1  0  0  0  0
 25 24  2  0  0  0  0
 51 25  1  0  0  0  0
 52 26  1  0  0  0  0
  8  7  1  0  0  0  0
 18 17  1  0  0  0  0
 26 25  1  0  0  0  0
M  END
>  <FittedScore>
-33.02

$$$$
