A71EV2A-x7250a_lowest-energy
  FITTED

 56 58     0  0  0  0  0  0  0999 V2000
    6.2754    9.4609   26.2348 C    0  0  0  0  0  0  0  0  0  0  0  0
    6.4979   11.2543   26.3302 S    0  0  0  0  0  0  0  0  0  0  0  0
    7.6266   11.6603   25.0012 C    0  0  0  0  0  0  0  0  0  0  0  0
    8.3759   10.6414   24.4831 N    0  0  0  0  0  0  0  0  0  0  0  0
    9.2829   10.9379   23.5185 C    0  0  0  0  0  0  0  0  0  0  0  0
    9.5262   12.1890   23.0528 N    0  0  0  0  0  0  0  0  0  0  0  0
    8.7982   13.2179   23.5645 C    0  0  0  0  0  0  0  0  0  0  0  0
    9.1468   14.4787   23.1231 N    0  0  0  0  0  0  0  0  0  0  0  0
   10.1275   15.2993   23.8791 C    0  0  0  0  0  0  0  0  0  0  0  0
   11.4142   15.5332   23.0462 C    0  0  0  0  0  0  0  0  0  0  0  0
   11.1214   16.0247   21.6020 C    0  0  0  0  0  0  0  0  0  0  0  0
   10.0665   15.1198   20.8912 C    0  0  0  0  0  0  0  0  0  0  0  0
    9.7487   15.6319   19.4644 C    0  0  0  0  0  0  0  0  0  0  0  0
    8.7790   14.9329   21.7615 C    0  0  0  0  0  0  0  0  0  0  0  0
    7.7798   12.9950   24.5289 C    0  0  0  0  0  0  0  0  0  0  0  0
    6.9718   14.1713   25.1216 C    0  0  0  0  0  0  0  0  0  0  0  0
    7.7167   14.8851   26.2596 C    0  0  0  0  0  0  0  0  0  0  0  0
    8.6530   14.3266   26.8023 O    0  0  0  0  0  0  0  0  0  0  0  0
    7.3919   16.1836   26.5781 N    0  0  0  0  0  0  0  0  0  0  0  0
    6.1263   16.8905   26.1915 C    0  0  0  0  0  0  0  0  0  0  0  0
    5.4153   17.5670   27.3959 C    0  0  0  0  0  0  0  0  0  0  0  0
    6.3675   18.4911   28.2021 C    0  0  0  0  0  0  0  0  0  0  0  0
    7.6911   17.7580   28.5807 C    0  0  0  0  0  0  0  0  0  0  0  0
    8.7047   18.7031   29.2260 C    0  0  0  0  0  0  0  0  0  0  0  0
    9.3463   18.2413   30.3202 N    0  0  0  0  0  0  0  0  0  0  0  0
    9.0758   19.7306   28.6944 O    0  0  0  0  0  0  0  0  0  0  0  0
    8.3253   17.0824   27.3315 C    0  0  0  0  0  0  0  0  0  0  0  0
    5.9507    9.1759   25.2298 H    0  0  0  0  0  0  0  0  0  0  0  0
    5.5191    9.1502   26.9608 H    0  0  0  0  0  0  0  0  0  0  0  0
    7.2146    8.9540   26.4744 H    0  0  0  0  0  0  0  0  0  0  0  0
    9.8655   10.1198   23.1021 H    0  0  0  0  0  0  0  0  0  0  0  0
   10.4240   14.8244   24.8175 H    0  0  0  0  0  0  0  0  0  0  0  0
    9.6916   16.2618   24.1564 H    0  0  0  0  0  0  0  0  0  0  0  0
   11.9966   14.6060   22.9965 H    0  0  0  0  0  0  0  0  0  0  0  0
   12.0465   16.2655   23.5555 H    0  0  0  0  0  0  0  0  0  0  0  0
   12.0558   16.0228   21.0295 H    0  0  0  0  0  0  0  0  0  0  0  0
   10.7724   17.0611   21.6368 H    0  0  0  0  0  0  0  0  0  0  0  0
   10.5209   14.1304   20.7675 H    0  0  0  0  0  0  0  0  0  0  0  0
    9.4050   16.6698   19.4779 H    0  0  0  0  0  0  0  0  0  0  0  0
    8.9671   15.0244   18.9992 H    0  0  0  0  0  0  0  0  0  0  0  0
   10.6339   15.5694   18.8241 H    0  0  0  0  0  0  0  0  0  0  0  0
    8.1167   14.2144   21.2683 H    0  0  0  0  0  0  0  0  0  0  0  0
    8.2167   15.8686   21.8138 H    0  0  0  0  0  0  0  0  0  0  0  0
    5.9905   13.8495   25.4737 H    0  0  0  0  0  0  0  0  0  0  0  0
    6.7459   14.8680   24.3111 H    0  0  0  0  0  0  0  0  0  0  0  0
    5.3917   16.2116   25.7528 H    0  0  0  0  0  0  0  0  0  0  0  0
    6.3512   17.6289   25.4147 H    0  0  0  0  0  0  0  0  0  0  0  0
    5.0244   16.7872   28.0552 H    0  0  0  0  0  0  0  0  0  0  0  0
    4.5546   18.1390   27.0399 H    0  0  0  0  0  0  0  0  0  0  0  0
    5.8579   18.8194   29.1107 H    0  0  0  0  0  0  0  0  0  0  0  0
    6.5683   19.3927   27.6143 H    0  0  0  0  0  0  0  0  0  0  0  0
    7.4272   16.9635   29.2866 H    0  0  0  0  0  0  0  0  0  0  0  0
   10.1840   18.7170   30.6346 H    0  0  0  0  0  0  0  0  0  0  0  0
    9.1179   17.3355   30.7035 H    0  0  0  0  0  0  0  0  0  0  0  0
    9.2416   16.5752   27.6428 H    0  0  0  0  0  0  0  0  0  0  0  0
    8.6708   17.8485   26.6293 H    0  0  0  0  0  0  0  0  0  0  0  0
 15 16  1  0  0  0  0
  7 15  2  0  0  0  0
  6  7  1  0  0  0  0
  5  6  2  0  0  0  0
  4  5  1  0  0  0  0
  3  4  2  0  0  0  0
  2  3  1  0  0  0  0
  1  2  1  0  0  0  0
 28  1  1  0  0  0  0
 29  1  1  0  0  0  0
 30  1  1  0  0  0  0
 31  5  1  0  0  0  0
  8  7  1  0  0  0  0
  9  8  1  0  0  0  0
 10  9  1  0  0  0  0
 32  9  1  0  0  0  0
 33  9  1  0  0  0  0
 11 10  1  0  0  0  0
 34 10  1  0  0  0  0
 35 10  1  0  0  0  0
 12 11  1  0  0  0  0
 36 11  1  0  0  0  0
 37 11  1  0  0  0  0
 13 12  1  0  0  0  0
 14 12  1  0  0  0  0
 38 12  1  0  0  0  0
 39 13  1  0  0  0  0
 40 13  1  0  0  0  0
 41 13  1  0  0  0  0
 42 14  1  0  0  0  0
 43 14  1  0  0  0  0
 17 16  1  0  0  0  0
 44 16  1  0  0  0  0
 45 16  1  0  0  0  0
 18 17  2  0  0  0  0
 19 17  1  0  0  0  0
 20 19  1  0  0  0  0
 21 20  1  0  0  0  0
 46 20  1  0  0  0  0
 47 20  1  0  0  0  0
 22 21  1  0  0  0  0
 48 21  1  0  0  0  0
 49 21  1  0  0  0  0
 23 22  1  0  0  0  0
 50 22  1  0  0  0  0
 51 22  1  0  0  0  0
 24 23  1  0  0  0  0
 27 23  1  0  0  0  0
 52 23  1  0  0  0  0
 25 24  1  0  0  0  0
 26 24  2  0  0  0  0
 53 25  1  0  0  0  0
 54 25  1  0  0  0  0
 55 27  1  0  0  0  0
 56 27  1  0  0  0  0
 14  8  1  0  0  0  0
 15  3  1  0  0  0  0
 27 19  1  0  0  0  0
M  END
>  <FittedScore>
-21.05

$$$$
