A71EV2A-x7250a_best-RMSD
  FITTED

 56 58     0  0  0  0  0  0  0999 V2000
    9.4381    9.2268   23.4820 C    0  0  0  0  0  0  0  0  0  0  0  0
    9.1688   11.0028   23.8014 S    0  0  0  0  0  0  0  0  0  0  0  0
    7.7370   11.1163   24.8747 C    0  0  0  0  0  0  0  0  0  0  0  0
    7.4198    9.9654   25.5210 N    0  0  0  0  0  0  0  0  0  0  0  0
    6.3574    9.9562   26.3531 C    0  0  0  0  0  0  0  0  0  0  0  0
    5.5861   11.0354   26.5958 N    0  0  0  0  0  0  0  0  0  0  0  0
    5.8481   12.2329   25.9672 C    0  0  0  0  0  0  0  0  0  0  0  0
    4.9191   13.2356   26.3218 N    0  0  0  0  0  0  0  0  0  0  0  0
    4.2762   13.3638   27.6805 C    0  0  0  0  0  0  0  0  0  0  0  0
    4.5457   14.7700   28.3173 C    0  0  0  0  0  0  0  0  0  0  0  0
    4.4196   15.9690   27.3195 C    0  0  0  0  0  0  0  0  0  0  0  0
    5.0577   15.6328   25.9332 C    0  0  0  0  0  0  0  0  0  0  0  0
    4.9554   16.7821   24.9086 C    0  0  0  0  0  0  0  0  0  0  0  0
    4.4200   14.2995   25.4222 C    0  0  0  0  0  0  0  0  0  0  0  0
    6.9574   12.3125   25.0293 C    0  0  0  0  0  0  0  0  0  0  0  0
    7.3760   13.5336   24.1371 C    0  0  0  0  0  0  0  0  0  0  0  0
    8.5940   14.3339   24.5894 C    0  0  0  0  0  0  0  0  0  0  0  0
    8.9844   14.1852   25.7386 O    0  0  0  0  0  0  0  0  0  0  0  0
    9.2507   15.1731   23.7014 N    0  0  0  0  0  0  0  0  0  0  0  0
   10.5513   15.8372   24.0500 C    0  0  0  0  0  0  0  0  0  0  0  0
   11.7027   15.3134   23.1783 C    0  0  0  0  0  0  0  0  0  0  0  0
   11.4205   15.5525   21.6783 C    0  0  0  0  0  0  0  0  0  0  0  0
   10.0128   15.0270   21.2383 C    0  0  0  0  0  0  0  0  0  0  0  0
    9.8016   15.4269   19.7626 C    0  0  0  0  0  0  0  0  0  0  0  0
   10.4943   14.6868   18.8735 N    0  0  0  0  0  0  0  0  0  0  0  0
    9.1849   16.3901   19.3564 O    0  0  0  0  0  0  0  0  0  0  0  0
    8.8969   15.4720   22.2548 C    0  0  0  0  0  0  0  0  0  0  0  0
    9.7692    8.7361   24.4010 H    0  0  0  0  0  0  0  0  0  0  0  0
   10.2222    9.1232   22.7280 H    0  0  0  0  0  0  0  0  0  0  0  0
    8.5219    8.7604   23.1153 H    0  0  0  0  0  0  0  0  0  0  0  0
    6.1195    9.0281   26.8695 H    0  0  0  0  0  0  0  0  0  0  0  0
    4.6082   12.6180   28.4083 H    0  0  0  0  0  0  0  0  0  0  0  0
    3.1940   13.2096   27.6019 H    0  0  0  0  0  0  0  0  0  0  0  0
    5.5512   14.7765   28.7507 H    0  0  0  0  0  0  0  0  0  0  0  0
    3.8471   14.9241   29.1461 H    0  0  0  0  0  0  0  0  0  0  0  0
    4.9099   16.8445   27.7542 H    0  0  0  0  0  0  0  0  0  0  0  0
    3.3643   16.2278   27.1867 H    0  0  0  0  0  0  0  0  0  0  0  0
    6.1322   15.4891   26.1012 H    0  0  0  0  0  0  0  0  0  0  0  0
    5.7909   16.7467   24.2018 H    0  0  0  0  0  0  0  0  0  0  0  0
    4.9923   17.7580   25.4001 H    0  0  0  0  0  0  0  0  0  0  0  0
    4.0241   16.7379   24.3364 H    0  0  0  0  0  0  0  0  0  0  0  0
    4.5721   14.0925   24.3658 H    0  0  0  0  0  0  0  0  0  0  0  0
    3.3294   14.3743   25.4585 H    0  0  0  0  0  0  0  0  0  0  0  0
    6.6050   14.2676   23.9791 H    0  0  0  0  0  0  0  0  0  0  0  0
    7.5365   13.1551   23.1227 H    0  0  0  0  0  0  0  0  0  0  0  0
   10.8417   15.7081   25.0972 H    0  0  0  0  0  0  0  0  0  0  0  0
   10.4647   16.9253   23.9292 H    0  0  0  0  0  0  0  0  0  0  0  0
   11.8476   14.2447   23.3679 H    0  0  0  0  0  0  0  0  0  0  0  0
   12.6356   15.8130   23.4546 H    0  0  0  0  0  0  0  0  0  0  0  0
   12.2007   15.0341   21.1115 H    0  0  0  0  0  0  0  0  0  0  0  0
   11.5192   16.6210   21.4531 H    0  0  0  0  0  0  0  0  0  0  0  0
   10.0382   13.9290   21.2798 H    0  0  0  0  0  0  0  0  0  0  0  0
   10.4684   14.9081   17.8824 H    0  0  0  0  0  0  0  0  0  0  0  0
   10.9220   13.8170   19.1809 H    0  0  0  0  0  0  0  0  0  0  0  0
    7.9395   15.0492   21.9530 H    0  0  0  0  0  0  0  0  0  0  0  0
    8.7561   16.5531   22.1633 H    0  0  0  0  0  0  0  0  0  0  0  0
 15 16  1  0  0  0  0
  7 15  2  0  0  0  0
  6  7  1  0  0  0  0
  5  6  2  0  0  0  0
  4  5  1  0  0  0  0
  3  4  2  0  0  0  0
  2  3  1  0  0  0  0
  1  2  1  0  0  0  0
 28  1  1  0  0  0  0
 29  1  1  0  0  0  0
 30  1  1  0  0  0  0
 31  5  1  0  0  0  0
  8  7  1  0  0  0  0
  9  8  1  0  0  0  0
 10  9  1  0  0  0  0
 32  9  1  0  0  0  0
 33  9  1  0  0  0  0
 11 10  1  0  0  0  0
 34 10  1  0  0  0  0
 35 10  1  0  0  0  0
 12 11  1  0  0  0  0
 36 11  1  0  0  0  0
 37 11  1  0  0  0  0
 13 12  1  0  0  0  0
 14 12  1  0  0  0  0
 38 12  1  0  0  0  0
 39 13  1  0  0  0  0
 40 13  1  0  0  0  0
 41 13  1  0  0  0  0
 42 14  1  0  0  0  0
 43 14  1  0  0  0  0
 17 16  1  0  0  0  0
 44 16  1  0  0  0  0
 45 16  1  0  0  0  0
 18 17  2  0  0  0  0
 19 17  1  0  0  0  0
 20 19  1  0  0  0  0
 21 20  1  0  0  0  0
 46 20  1  0  0  0  0
 47 20  1  0  0  0  0
 22 21  1  0  0  0  0
 48 21  1  0  0  0  0
 49 21  1  0  0  0  0
 23 22  1  0  0  0  0
 50 22  1  0  0  0  0
 51 22  1  0  0  0  0
 24 23  1  0  0  0  0
 27 23  1  0  0  0  0
 52 23  1  0  0  0  0
 25 24  1  0  0  0  0
 26 24  2  0  0  0  0
 53 25  1  0  0  0  0
 54 25  1  0  0  0  0
 55 27  1  0  0  0  0
 56 27  1  0  0  0  0
 14  8  1  0  0  0  0
 15  3  1  0  0  0  0
 27 19  1  0  0  0  0
M  END
>  <FittedScore>
-29.24

$$$$
