A71EV2A-x4528a_lowest-energy
  FITTED

 43 45     0  0  0  0  0  0  0999 V2000
    9.9592    9.2336   23.4676 CL   0  0  0  0  0  0  0  0  0  0  0  0
    8.6131    9.9154   24.3032 C    0  0  0  0  0  0  0  0  0  0  0  0
    7.5227    9.1116   24.6468 C    0  0  0  0  0  0  0  0  0  0  0  0
    6.4374    9.6571   25.3367 C    0  0  0  0  0  0  0  0  0  0  0  0
    8.6296   11.2709   24.6556 C    0  0  0  0  0  0  0  0  0  0  0  0
    7.5404   11.8536   25.3483 C    0  0  0  0  0  0  0  0  0  0  0  0
    6.4382   11.0169   25.6704 C    0  0  0  0  0  0  0  0  0  0  0  0
    5.3286   11.5323   26.3219 O    0  0  0  0  0  0  0  0  0  0  0  0
    5.0330   12.9465   26.1513 C    0  0  0  0  0  0  0  0  0  0  0  0
    6.3183   13.7589   26.4543 C    0  0  0  0  0  0  0  0  0  0  0  0
    7.4941   13.2124   25.7097 N    0  0  0  0  0  0  0  0  0  0  0  0
    8.5100   14.2170   25.2711 C    0  0  0  0  0  0  0  0  0  0  0  0
    8.3796   14.6276   23.7825 C    0  0  0  0  0  0  0  0  0  0  0  0
    7.4657   14.1822   23.1092 O    0  0  0  0  0  0  0  0  0  0  0  0
    9.2753   15.5138   23.2182 N    0  0  0  0  0  0  0  0  0  0  0  0
   10.4620   16.1350   23.8931 C    0  0  0  0  0  0  0  0  0  0  0  0
   11.7928   15.7987   23.1668 C    0  0  0  0  0  0  0  0  0  0  0  0
   11.7512   16.1529   21.6509 C    0  0  0  0  0  0  0  0  0  0  0  0
    9.2045   15.9781   21.7842 C    0  0  0  0  0  0  0  0  0  0  0  0
   10.4745   15.5744   20.9762 C    0  0  0  0  0  0  0  0  0  0  0  0
   10.4045   15.9527   19.4947 C    0  0  0  0  0  0  0  0  0  0  0  0
   10.0137   17.0219   19.0611 O    0  0  0  0  0  0  0  0  0  0  0  0
   10.7563   14.9748   18.6458 N    0  0  0  0  0  0  0  0  0  0  0  0
    7.5131    8.0554   24.3845 H    0  0  0  0  0  0  0  0  0  0  0  0
    5.5882    9.0269   25.5939 H    0  0  0  0  0  0  0  0  0  0  0  0
    9.5040   11.8470   24.3746 H    0  0  0  0  0  0  0  0  0  0  0  0
    4.7142   13.1177   25.1167 H    0  0  0  0  0  0  0  0  0  0  0  0
    4.2125   13.2311   26.8129 H    0  0  0  0  0  0  0  0  0  0  0  0
    6.1123   14.8048   26.2073 H    0  0  0  0  0  0  0  0  0  0  0  0
    6.5126   13.7222   27.5291 H    0  0  0  0  0  0  0  0  0  0  0  0
    8.4486   15.1208   25.8835 H    0  0  0  0  0  0  0  0  0  0  0  0
    9.5127   13.8338   25.4806 H    0  0  0  0  0  0  0  0  0  0  0  0
   10.3207   17.2192   23.9253 H    0  0  0  0  0  0  0  0  0  0  0  0
   10.5762   15.8449   24.9362 H    0  0  0  0  0  0  0  0  0  0  0  0
   12.6105   16.3444   23.6443 H    0  0  0  0  0  0  0  0  0  0  0  0
   12.0085   14.7326   23.2921 H    0  0  0  0  0  0  0  0  0  0  0  0
   11.7853   17.2403   21.5234 H    0  0  0  0  0  0  0  0  0  0  0  0
   12.6434   15.7534   21.1590 H    0  0  0  0  0  0  0  0  0  0  0  0
    9.0749   17.0639   21.7673 H    0  0  0  0  0  0  0  0  0  0  0  0
    8.3329   15.5943   21.2485 H    0  0  0  0  0  0  0  0  0  0  0  0
   10.5341   14.4798   21.0491 H    0  0  0  0  0  0  0  0  0  0  0  0
   11.0044   14.0444   18.9812 H    0  0  0  0  0  0  0  0  0  0  0  0
   10.6920   15.1337   17.6522 H    0  0  0  0  0  0  0  0  0  0  0  0
 12 13  1  0  0  0  0
 11 12  1  0  0  0  0
 10 11  1  0  0  0  0
  9 10  1  0  0  0  0
  8  9  1  0  0  0  0
  7  8  1  0  0  0  0
  4  7  2  0  0  0  0
  3  4  1  0  0  0  0
  2  3  2  0  0  0  0
  1  2  1  0  0  0  0
 24  3  1  0  0  0  0
 25  4  1  0  0  0  0
  5  2  1  0  0  0  0
 26  5  1  0  0  0  0
  6  5  2  0  0  0  0
 27  9  1  0  0  0  0
 28  9  1  0  0  0  0
 29 10  1  0  0  0  0
 30 10  1  0  0  0  0
 31 12  1  0  0  0  0
 32 12  1  0  0  0  0
 14 13  2  0  0  0  0
 15 13  1  0  0  0  0
 16 15  1  0  0  0  0
 33 16  1  0  0  0  0
 34 16  1  0  0  0  0
 17 16  1  0  0  0  0
 35 17  1  0  0  0  0
 36 17  1  0  0  0  0
 18 17  1  0  0  0  0
 37 18  1  0  0  0  0
 38 18  1  0  0  0  0
 19 15  1  0  0  0  0
 39 19  1  0  0  0  0
 40 19  1  0  0  0  0
 20 18  1  0  0  0  0
 21 20  1  0  0  0  0
 41 20  1  0  0  0  0
 22 21  2  0  0  0  0
 23 21  1  0  0  0  0
 42 23  1  0  0  0  0
 43 23  1  0  0  0  0
  7  6  1  0  0  0  0
 11  6  1  0  0  0  0
 20 19  1  0  0  0  0
M  END
>  <FittedScore>
-33.93

$$$$
