A71EV2A-x4739a_best-RMSD
  FITTED

 41 43     0  0  0  0  0  0  0999 V2000
   10.3605   17.2469   19.5203 O    0  0  0  0  0  0  0  0  0  0  0  0
   10.3382   16.0597   19.7573 C    0  0  0  0  0  0  0  0  0  0  0  0
   10.0863   15.2154   18.7355 N    0  0  0  0  0  0  0  0  0  0  0  0
   10.9744   15.4251   20.9837 C    0  0  0  0  0  0  0  0  0  0  0  0
   10.3498   16.1665   22.1510 C    0  0  0  0  0  0  0  0  0  0  0  0
   11.0146   16.2059   23.5385 C    0  0  0  0  0  0  0  0  0  0  0  0
   11.1225   14.7735   24.1526 C    0  0  0  0  0  0  0  0  0  0  0  0
    9.7002   14.8968   21.6503 C    0  0  0  0  0  0  0  0  0  0  0  0
    9.7731   13.6249   22.5009 C    0  0  0  0  0  0  0  0  0  0  0  0
    9.8625   13.9703   23.9528 N    0  0  0  0  0  0  0  0  0  0  0  0
    8.8777   13.8377   24.9166 C    0  0  0  0  0  0  0  0  0  0  0  0
    9.0331   14.3019   26.0320 O    0  0  0  0  0  0  0  0  0  0  0  0
    7.4596   13.3399   24.5792 C    0  0  0  0  0  0  0  0  0  0  0  0
    7.0256   12.0917   25.3739 C    0  0  0  0  0  0  0  0  0  0  0  0
    7.3690   10.7627   25.0013 C    0  0  0  0  0  0  0  0  0  0  0  0
    8.4717   10.4649   23.6232 S    0  0  0  0  0  0  0  0  0  0  0  0
    8.9630    8.7123   23.6000 C    0  0  0  0  0  0  0  0  0  0  0  0
    6.1859   12.2894   26.4928 C    0  0  0  0  0  0  0  0  0  0  0  0
    5.6672   11.2035   27.2097 C    0  0  0  0  0  0  0  0  0  0  0  0
    5.9746    9.8989   26.8180 C    0  0  0  0  0  0  0  0  0  0  0  0
    6.8184    9.6809   25.7224 C    0  0  0  0  0  0  0  0  0  0  0  0
    9.9063   15.5844   17.8067 H    0  0  0  0  0  0  0  0  0  0  0  0
   10.2631   14.2213   18.8463 H    0  0  0  0  0  0  0  0  0  0  0  0
   11.9223   14.8946   21.0240 H    0  0  0  0  0  0  0  0  0  0  0  0
    9.7841   17.0846   21.9958 H    0  0  0  0  0  0  0  0  0  0  0  0
   12.0010   16.6730   23.4770 H    0  0  0  0  0  0  0  0  0  0  0  0
   10.4072   16.8206   24.2104 H    0  0  0  0  0  0  0  0  0  0  0  0
   11.9869   14.2517   23.7245 H    0  0  0  0  0  0  0  0  0  0  0  0
   11.3767   14.8696   25.2110 H    0  0  0  0  0  0  0  0  0  0  0  0
    8.6998   15.0256   21.2257 H    0  0  0  0  0  0  0  0  0  0  0  0
   10.6494   13.0241   22.2275 H    0  0  0  0  0  0  0  0  0  0  0  0
    8.9519   12.9637   22.2450 H    0  0  0  0  0  0  0  0  0  0  0  0
    6.7822   14.1667   24.8085 H    0  0  0  0  0  0  0  0  0  0  0  0
    7.2597   13.1843   23.5240 H    0  0  0  0  0  0  0  0  0  0  0  0
    8.1013    8.0854   23.3680 H    0  0  0  0  0  0  0  0  0  0  0  0
    9.3833    8.4241   24.5656 H    0  0  0  0  0  0  0  0  0  0  0  0
    9.7173    8.5583   22.8276 H    0  0  0  0  0  0  0  0  0  0  0  0
    5.9172   13.2951   26.8074 H    0  0  0  0  0  0  0  0  0  0  0  0
    5.0178   11.3804   28.0639 H    0  0  0  0  0  0  0  0  0  0  0  0
    5.5597    9.0552   27.3671 H    0  0  0  0  0  0  0  0  0  0  0  0
    7.0255    8.6514   25.4585 H    0  0  0  0  0  0  0  0  0  0  0  0
  7 10  1  0  0  0  0
  6  7  1  0  0  0  0
  5  6  1  0  0  0  0
  8  5  1  0  0  0  0
  4  5  1  0  0  0  0
  2  4  1  0  0  0  0
  1  2  2  0  0  0  0
  3  2  1  0  0  0  0
 22  3  1  0  0  0  0
 23  3  1  0  0  0  0
 24  4  1  0  0  0  0
 25  5  1  0  0  0  0
 26  6  1  0  0  0  0
 27  6  1  0  0  0  0
 28  7  1  0  0  0  0
 29  7  1  0  0  0  0
  9  8  1  0  0  0  0
 30  8  1  0  0  0  0
 31  9  1  0  0  0  0
 32  9  1  0  0  0  0
 11 10  1  0  0  0  0
 12 11  2  0  0  0  0
 13 11  1  0  0  0  0
 33 13  1  0  0  0  0
 34 13  1  0  0  0  0
 14 13  1  0  0  0  0
 15 14  1  0  0  0  0
 21 15  2  0  0  0  0
 16 15  1  0  0  0  0
 17 16  1  0  0  0  0
 35 17  1  0  0  0  0
 36 17  1  0  0  0  0
 37 17  1  0  0  0  0
 18 14  2  0  0  0  0
 38 18  1  0  0  0  0
 19 18  1  0  0  0  0
 39 19  1  0  0  0  0
 20 19  2  0  0  0  0
 40 20  1  0  0  0  0
 41 21  1  0  0  0  0
  8  4  1  0  0  0  0
 10  9  1  0  0  0  0
 21 20  1  0  0  0  0
M  END
>  <FittedScore>
-30.09

$$$$
