A71EV2A-x3606a_best-RMSD
  FITTED

 46 48     0  0  0  0  0  0  0999 V2000
    9.5688   16.5779   19.2672 O    0  0  0  0  0  0  0  0  0  0  0  0
   10.1774   15.5902   19.6468 C    0  0  0  0  0  0  0  0  0  0  0  0
   11.0031   14.9417   18.7968 N    0  0  0  0  0  0  0  0  0  0  0  0
   10.1853   15.0877   21.0996 C    0  0  0  0  0  0  0  0  0  0  0  0
   11.2127   15.8717   21.9633 C    0  0  0  0  0  0  0  0  0  0  0  0
   11.1890   15.3802   23.4324 C    0  0  0  0  0  0  0  0  0  0  0  0
    9.7475   15.4034   24.0097 C    0  0  0  0  0  0  0  0  0  0  0  0
    8.7677   15.1077   21.7604 C    0  0  0  0  0  0  0  0  0  0  0  0
    8.7546   14.6286   23.1901 N    0  0  0  0  0  0  0  0  0  0  0  0
    7.9147   13.6282   23.6513 C    0  0  0  0  0  0  0  0  0  0  0  0
    7.1319   13.0781   22.8960 O    0  0  0  0  0  0  0  0  0  0  0  0
    8.0421   13.1023   25.1027 C    0  0  0  0  0  0  0  0  0  0  0  0
    7.4093   11.7118   25.3068 C    0  0  0  0  0  0  0  0  0  0  0  0
    8.0036   10.5779   24.8068 N    0  0  0  0  0  0  0  0  0  0  0  0
    9.2290   10.5184   23.9751 C    0  0  0  0  0  0  0  0  0  0  0  0
    6.2690   11.3073   26.0099 C    0  0  0  0  0  0  0  0  0  0  0  0
    6.2725    9.9198   25.8983 C    0  0  0  0  0  0  0  0  0  0  0  0
    7.3930    9.4068   25.1052 N    0  0  0  0  0  0  0  0  0  0  0  0
    5.2857   12.0456   26.7200 C    0  0  0  0  0  0  0  0  0  0  0  0
    5.0430   13.4202   26.4724 C    0  0  0  0  0  0  0  0  0  0  0  0
    4.1372   14.1570   27.2488 C    0  0  0  0  0  0  0  0  0  0  0  0
    3.9207   15.8421   26.9554 CL   0  0  0  0  0  0  0  0  0  0  0  0
    3.3965   13.5279   28.2551 C    0  0  0  0  0  0  0  0  0  0  0  0
    3.5447   12.1502   28.4614 C    0  0  0  0  0  0  0  0  0  0  0  0
    2.6010   11.3401   29.6614 CL   0  0  0  0  0  0  0  0  0  0  0  0
    4.4775   11.4222   27.7093 C    0  0  0  0  0  0  0  0  0  0  0  0
   11.6058   14.1929   19.1241 H    0  0  0  0  0  0  0  0  0  0  0  0
   10.9499   15.1164   17.8005 H    0  0  0  0  0  0  0  0  0  0  0  0
   10.5091   14.0359   21.0966 H    0  0  0  0  0  0  0  0  0  0  0  0
   12.2173   15.7432   21.5572 H    0  0  0  0  0  0  0  0  0  0  0  0
   10.9870   16.9371   21.9399 H    0  0  0  0  0  0  0  0  0  0  0  0
   11.5961   14.3684   23.4802 H    0  0  0  0  0  0  0  0  0  0  0  0
   11.8386   16.0099   24.0458 H    0  0  0  0  0  0  0  0  0  0  0  0
    9.8125   15.0901   25.0540 H    0  0  0  0  0  0  0  0  0  0  0  0
    9.4060   16.4480   24.0745 H    0  0  0  0  0  0  0  0  0  0  0  0
    8.1075   14.5167   21.1236 H    0  0  0  0  0  0  0  0  0  0  0  0
    8.3529   16.1203   21.7413 H    0  0  0  0  0  0  0  0  0  0  0  0
    9.0946   12.9917   25.3797 H    0  0  0  0  0  0  0  0  0  0  0  0
    7.6712   13.8438   25.8121 H    0  0  0  0  0  0  0  0  0  0  0  0
    9.5342    9.4917   23.7587 H    0  0  0  0  0  0  0  0  0  0  0  0
   10.0862   10.9897   24.4570 H    0  0  0  0  0  0  0  0  0  0  0  0
    9.0987   11.0095   23.0074 H    0  0  0  0  0  0  0  0  0  0  0  0
    5.5355    9.2194   26.2913 H    0  0  0  0  0  0  0  0  0  0  0  0
    5.5230   13.9309   25.6478 H    0  0  0  0  0  0  0  0  0  0  0  0
    2.7033   14.1024   28.8678 H    0  0  0  0  0  0  0  0  0  0  0  0
    4.5716   10.3615   27.9402 H    0  0  0  0  0  0  0  0  0  0  0  0
  9 10  1  0  0  0  0
  7  9  1  0  0  0  0
  6  7  1  0  0  0  0
  5  6  1  0  0  0  0
  4  5  1  0  0  0  0
  2  4  1  0  0  0  0
  1  2  2  0  0  0  0
  3  2  1  0  0  0  0
 27  3  1  0  0  0  0
 28  3  1  0  0  0  0
 29  4  1  0  0  0  0
 30  5  1  0  0  0  0
 31  5  1  0  0  0  0
 32  6  1  0  0  0  0
 33  6  1  0  0  0  0
 34  7  1  0  0  0  0
 35  7  1  0  0  0  0
  8  4  1  0  0  0  0
 36  8  1  0  0  0  0
 37  8  1  0  0  0  0
 11 10  2  0  0  0  0
 12 10  1  0  0  0  0
 38 12  1  0  0  0  0
 39 12  1  0  0  0  0
 13 12  1  0  0  0  0
 14 13  1  0  0  0  0
 18 14  1  0  0  0  0
 15 14  1  0  0  0  0
 40 15  1  0  0  0  0
 41 15  1  0  0  0  0
 42 15  1  0  0  0  0
 16 13  2  0  0  0  0
 17 16  1  0  0  0  0
 43 17  1  0  0  0  0
 19 16  1  0  0  0  0
 26 19  2  0  0  0  0
 20 19  1  0  0  0  0
 44 20  1  0  0  0  0
 21 20  2  0  0  0  0
 22 21  1  0  0  0  0
 23 21  1  0  0  0  0
 45 23  1  0  0  0  0
 24 23  2  0  0  0  0
 25 24  1  0  0  0  0
 46 26  1  0  0  0  0
  9  8  1  0  0  0  0
 18 17  2  0  0  0  0
 26 24  1  0  0  0  0
M  END
>  <FittedScore>
-32.83

$$$$
