A71EV2A-x3606a_lowest-energy
  FITTED

 46 48     0  0  0  0  0  0  0999 V2000
    9.7834   16.6919   19.3156 O    0  0  0  0  0  0  0  0  0  0  0  0
   10.2879   15.6495   19.6906 C    0  0  0  0  0  0  0  0  0  0  0  0
   10.7747   14.7560   18.7979 N    0  0  0  0  0  0  0  0  0  0  0  0
   10.2880   15.1943   21.1491 C    0  0  0  0  0  0  0  0  0  0  0  0
   11.2639   16.0372   22.0296 C    0  0  0  0  0  0  0  0  0  0  0  0
   11.2399   15.5209   23.4932 C    0  0  0  0  0  0  0  0  0  0  0  0
    9.7864   15.4027   24.0339 C    0  0  0  0  0  0  0  0  0  0  0  0
    8.8543   15.1454   21.7693 C    0  0  0  0  0  0  0  0  0  0  0  0
    8.8707   14.5944   23.1617 N    0  0  0  0  0  0  0  0  0  0  0  0
    8.0890   13.5353   23.5681 C    0  0  0  0  0  0  0  0  0  0  0  0
    7.1891   13.0942   22.8753 O    0  0  0  0  0  0  0  0  0  0  0  0
    8.3461   12.9091   24.9480 C    0  0  0  0  0  0  0  0  0  0  0  0
    7.5298   11.6421   25.2075 C    0  0  0  0  0  0  0  0  0  0  0  0
    7.9805   10.3879   24.8807 N    0  0  0  0  0  0  0  0  0  0  0  0
    9.1419   10.0630   24.0316 C    0  0  0  0  0  0  0  0  0  0  0  0
    6.2796   11.5051   25.8207 C    0  0  0  0  0  0  0  0  0  0  0  0
    6.1143   10.1297   25.9218 C    0  0  0  0  0  0  0  0  0  0  0  0
    7.1690    9.3631   25.2440 N    0  0  0  0  0  0  0  0  0  0  0  0
    5.3113   12.4727   26.2312 C    0  0  0  0  0  0  0  0  0  0  0  0
    4.2160   12.1033   27.0555 C    0  0  0  0  0  0  0  0  0  0  0  0
    3.2351   13.0325   27.4306 C    0  0  0  0  0  0  0  0  0  0  0  0
    1.9041   12.5177   28.4008 CL   0  0  0  0  0  0  0  0  0  0  0  0
    3.3206   14.3674   27.0073 C    0  0  0  0  0  0  0  0  0  0  0  0
    4.3820   14.7611   26.1838 C    0  0  0  0  0  0  0  0  0  0  0  0
    4.5237   16.3830   25.5878 CL   0  0  0  0  0  0  0  0  0  0  0  0
    5.3410   13.8211   25.7958 C    0  0  0  0  0  0  0  0  0  0  0  0
   10.8343   14.9890   17.8101 H    0  0  0  0  0  0  0  0  0  0  0  0
   10.9790   13.8009   19.0858 H    0  0  0  0  0  0  0  0  0  0  0  0
   10.6700   14.1666   21.1709 H    0  0  0  0  0  0  0  0  0  0  0  0
   12.2821   15.9570   21.6403 H    0  0  0  0  0  0  0  0  0  0  0  0
   10.9989   17.0957   22.0012 H    0  0  0  0  0  0  0  0  0  0  0  0
   11.7307   14.5427   23.5531 H    0  0  0  0  0  0  0  0  0  0  0  0
   11.8176   16.1935   24.1323 H    0  0  0  0  0  0  0  0  0  0  0  0
    9.8502   15.0444   25.0604 H    0  0  0  0  0  0  0  0  0  0  0  0
    9.3611   16.4037   24.1390 H    0  0  0  0  0  0  0  0  0  0  0  0
    8.2251   14.5612   21.0931 H    0  0  0  0  0  0  0  0  0  0  0  0
    8.4197   16.1515   21.7802 H    0  0  0  0  0  0  0  0  0  0  0  0
    9.4054   12.6794   25.0383 H    0  0  0  0  0  0  0  0  0  0  0  0
    8.1516   13.6259   25.7460 H    0  0  0  0  0  0  0  0  0  0  0  0
    9.1311   10.6278   23.0931 H    0  0  0  0  0  0  0  0  0  0  0  0
    9.1937    9.0001   23.7543 H    0  0  0  0  0  0  0  0  0  0  0  0
   10.0783   10.2940   24.5458 H    0  0  0  0  0  0  0  0  0  0  0  0
    5.2732    9.5913   26.3529 H    0  0  0  0  0  0  0  0  0  0  0  0
    4.0958   11.0912   27.4274 H    0  0  0  0  0  0  0  0  0  0  0  0
    2.5630   15.0913   27.3075 H    0  0  0  0  0  0  0  0  0  0  0  0
    6.0759   14.1878   25.1102 H    0  0  0  0  0  0  0  0  0  0  0  0
  9 10  1  0  0  0  0
  7  9  1  0  0  0  0
  6  7  1  0  0  0  0
  5  6  1  0  0  0  0
  4  5  1  0  0  0  0
  2  4  1  0  0  0  0
  1  2  2  0  0  0  0
  3  2  1  0  0  0  0
 27  3  1  0  0  0  0
 28  3  1  0  0  0  0
 29  4  1  0  0  0  0
 30  5  1  0  0  0  0
 31  5  1  0  0  0  0
 32  6  1  0  0  0  0
 33  6  1  0  0  0  0
 34  7  1  0  0  0  0
 35  7  1  0  0  0  0
  8  4  1  0  0  0  0
 36  8  1  0  0  0  0
 37  8  1  0  0  0  0
 11 10  2  0  0  0  0
 12 10  1  0  0  0  0
 38 12  1  0  0  0  0
 39 12  1  0  0  0  0
 13 12  1  0  0  0  0
 14 13  1  0  0  0  0
 18 14  1  0  0  0  0
 15 14  1  0  0  0  0
 40 15  1  0  0  0  0
 41 15  1  0  0  0  0
 42 15  1  0  0  0  0
 16 13  2  0  0  0  0
 17 16  1  0  0  0  0
 43 17  1  0  0  0  0
 19 16  1  0  0  0  0
 26 19  2  0  0  0  0
 20 19  1  0  0  0  0
 44 20  1  0  0  0  0
 21 20  2  0  0  0  0
 22 21  1  0  0  0  0
 23 21  1  0  0  0  0
 45 23  1  0  0  0  0
 24 23  2  0  0  0  0
 25 24  1  0  0  0  0
 46 26  1  0  0  0  0
  9  8  1  0  0  0  0
 18 17  2  0  0  0  0
 26 24  1  0  0  0  0
M  END
>  <FittedScore>
-32.67

$$$$
