A71EV2A-x5556a_lowest-energy
  FITTED

 36 37     0  0  0  0  0  0  0999 V2000
    6.7387   16.1738   23.5004 C    0  0  0  0  0  0  0  0  0  0  0  0
    7.9472   15.4373   24.1592 C    0  0  0  0  0  0  0  0  0  0  0  0
    7.6590   13.9595   24.5227 C    0  0  0  0  0  0  0  0  0  0  0  0
    6.6196   13.7036   25.4361 C    0  0  0  0  0  0  0  0  0  0  0  0
    6.2544   12.3959   25.7581 C    0  0  0  0  0  0  0  0  0  0  0  0
    6.9455   11.3114   25.2116 C    0  0  0  0  0  0  0  0  0  0  0  0
    6.3397    9.7510   25.6287 CL   0  0  0  0  0  0  0  0  0  0  0  0
    8.0496   11.5377   24.3635 C    0  0  0  0  0  0  0  0  0  0  0  0
    9.1648   10.1282   23.7059 BR   0  0  0  0  0  0  0  0  0  0  0  0
    8.3812   12.8544   24.0022 C    0  0  0  0  0  0  0  0  0  0  0  0
    9.2830   15.6328   23.4777 N    0  0  0  0  0  0  0  0  0  0  0  0
    9.2249   15.6012   21.9756 C    0  0  0  0  0  0  0  0  0  0  0  0
   10.5916   15.4911   21.2357 C    0  0  0  0  0  0  0  0  0  0  0  0
   10.4748   15.8884   19.7551 C    0  0  0  0  0  0  0  0  0  0  0  0
   10.7790   14.9222   18.8601 N    0  0  0  0  0  0  0  0  0  0  0  0
   10.0318   16.9590   19.3818 O    0  0  0  0  0  0  0  0  0  0  0  0
   11.6592   16.3462   21.9596 C    0  0  0  0  0  0  0  0  0  0  0  0
   11.7876   15.8911   23.4364 C    0  0  0  0  0  0  0  0  0  0  0  0
   10.4644   15.7281   24.1930 C    0  0  0  0  0  0  0  0  0  0  0  0
   10.5060   15.5481   25.4008 O    0  0  0  0  0  0  0  0  0  0  0  0
    6.9943   17.2147   23.2703 H    0  0  0  0  0  0  0  0  0  0  0  0
    5.8801   16.2049   24.1735 H    0  0  0  0  0  0  0  0  0  0  0  0
    6.4119   15.6776   22.5817 H    0  0  0  0  0  0  0  0  0  0  0  0
    8.0189   15.9584   25.1197 H    0  0  0  0  0  0  0  0  0  0  0  0
    6.0643   14.5154   25.8977 H    0  0  0  0  0  0  0  0  0  0  0  0
    5.4161   12.2287   26.4349 H    0  0  0  0  0  0  0  0  0  0  0  0
    9.2142   13.0082   23.3228 H    0  0  0  0  0  0  0  0  0  0  0  0
    8.7422   16.5246   21.6488 H    0  0  0  0  0  0  0  0  0  0  0  0
    8.5913   14.7776   21.6324 H    0  0  0  0  0  0  0  0  0  0  0  0
   10.9072   14.4444   21.3076 H    0  0  0  0  0  0  0  0  0  0  0  0
   10.9989   13.9753   19.1794 H    0  0  0  0  0  0  0  0  0  0  0  0
   10.7059   15.1019   17.8659 H    0  0  0  0  0  0  0  0  0  0  0  0
   11.3800   17.4038   21.9287 H    0  0  0  0  0  0  0  0  0  0  0  0
   12.6262   16.2537   21.4552 H    0  0  0  0  0  0  0  0  0  0  0  0
   12.4051   16.6243   23.9632 H    0  0  0  0  0  0  0  0  0  0  0  0
   12.3269   14.9411   23.4767 H    0  0  0  0  0  0  0  0  0  0  0  0
  2 11  1  0  0  0  0
  1  2  1  0  0  0  0
 21  1  1  0  0  0  0
 22  1  1  0  0  0  0
 23  1  1  0  0  0  0
  3  2  1  0  0  0  0
 24  2  1  0  0  0  0
  4  3  2  0  0  0  0
  5  4  1  0  0  0  0
 25  4  1  0  0  0  0
  6  5  2  0  0  0  0
 26  5  1  0  0  0  0
  7  6  1  0  0  0  0
  8  6  1  0  0  0  0
  9  8  1  0  0  0  0
 10  8  2  0  0  0  0
 27 10  1  0  0  0  0
 12 11  1  0  0  0  0
 13 12  1  0  0  0  0
 28 12  1  0  0  0  0
 29 12  1  0  0  0  0
 14 13  1  0  0  0  0
 17 13  1  0  0  0  0
 30 13  1  0  0  0  0
 15 14  1  0  0  0  0
 16 14  2  0  0  0  0
 31 15  1  0  0  0  0
 32 15  1  0  0  0  0
 18 17  1  0  0  0  0
 33 17  1  0  0  0  0
 34 17  1  0  0  0  0
 19 18  1  0  0  0  0
 35 18  1  0  0  0  0
 36 18  1  0  0  0  0
 20 19  2  0  0  0  0
 10  3  1  0  0  0  0
 19 11  1  0  0  0  0
M  END
>  <FittedScore>
-34.76

$$$$
