A71EV2A-x5556a_best-RMSD
  FITTED

 36 37     0  0  0  0  0  0  0999 V2000
    6.7212   16.0999   23.3505 C    0  0  0  0  0  0  0  0  0  0  0  0
    7.9268   15.4198   24.0776 C    0  0  0  0  0  0  0  0  0  0  0  0
    7.6483   13.9460   24.4669 C    0  0  0  0  0  0  0  0  0  0  0  0
    6.5781   13.6939   25.3467 C    0  0  0  0  0  0  0  0  0  0  0  0
    6.2125   12.3902   25.6810 C    0  0  0  0  0  0  0  0  0  0  0  0
    6.9357   11.3032   25.1798 C    0  0  0  0  0  0  0  0  0  0  0  0
    6.3438    9.7426   25.6144 CL   0  0  0  0  0  0  0  0  0  0  0  0
    8.0652   11.5285   24.3609 C    0  0  0  0  0  0  0  0  0  0  0  0
    9.1871   10.1190   23.7172 BR   0  0  0  0  0  0  0  0  0  0  0  0
    8.4009   12.8403   23.9950 C    0  0  0  0  0  0  0  0  0  0  0  0
    9.2836   15.6046   23.4428 N    0  0  0  0  0  0  0  0  0  0  0  0
    9.2661   15.5895   21.9405 C    0  0  0  0  0  0  0  0  0  0  0  0
   10.6445   15.4674   21.2306 C    0  0  0  0  0  0  0  0  0  0  0  0
   10.5580   15.8788   19.7553 C    0  0  0  0  0  0  0  0  0  0  0  0
   10.8458   14.9112   18.8605 N    0  0  0  0  0  0  0  0  0  0  0  0
   10.0897   16.9350   19.3740 O    0  0  0  0  0  0  0  0  0  0  0  0
   11.7065   16.2928   21.9956 C    0  0  0  0  0  0  0  0  0  0  0  0
   11.7927   15.8011   23.4657 C    0  0  0  0  0  0  0  0  0  0  0  0
   10.4493   15.6423   24.1869 C    0  0  0  0  0  0  0  0  0  0  0  0
   10.4606   15.4144   25.3867 O    0  0  0  0  0  0  0  0  0  0  0  0
    5.8376   16.1364   23.9915 H    0  0  0  0  0  0  0  0  0  0  0  0
    6.4397   15.5554   22.4482 H    0  0  0  0  0  0  0  0  0  0  0  0
    6.9489   17.1334   23.0800 H    0  0  0  0  0  0  0  0  0  0  0  0
    7.9692   15.9699   25.0234 H    0  0  0  0  0  0  0  0  0  0  0  0
    6.0028   14.5155   25.7698 H    0  0  0  0  0  0  0  0  0  0  0  0
    5.3577   12.2333   26.3311 H    0  0  0  0  0  0  0  0  0  0  0  0
    9.2589   12.9904   23.3435 H    0  0  0  0  0  0  0  0  0  0  0  0
    8.7958   16.5205   21.6116 H    0  0  0  0  0  0  0  0  0  0  0  0
    8.6396   14.7649   21.5784 H    0  0  0  0  0  0  0  0  0  0  0  0
   10.9421   14.4127   21.3000 H    0  0  0  0  0  0  0  0  0  0  0  0
   11.0469   13.9621   19.1715 H    0  0  0  0  0  0  0  0  0  0  0  0
   10.7793   15.1002   17.8621 H    0  0  0  0  0  0  0  0  0  0  0  0
   11.4442   17.3549   21.9863 H    0  0  0  0  0  0  0  0  0  0  0  0
   12.6840   16.1990   21.5150 H    0  0  0  0  0  0  0  0  0  0  0  0
   12.4169   16.5000   24.0294 H    0  0  0  0  0  0  0  0  0  0  0  0
   12.3165   14.8421   23.4890 H    0  0  0  0  0  0  0  0  0  0  0  0
  2 11  1  0  0  0  0
  1  2  1  0  0  0  0
 21  1  1  0  0  0  0
 22  1  1  0  0  0  0
 23  1  1  0  0  0  0
  3  2  1  0  0  0  0
 24  2  1  0  0  0  0
  4  3  2  0  0  0  0
  5  4  1  0  0  0  0
 25  4  1  0  0  0  0
  6  5  2  0  0  0  0
 26  5  1  0  0  0  0
  7  6  1  0  0  0  0
  8  6  1  0  0  0  0
  9  8  1  0  0  0  0
 10  8  2  0  0  0  0
 27 10  1  0  0  0  0
 12 11  1  0  0  0  0
 13 12  1  0  0  0  0
 28 12  1  0  0  0  0
 29 12  1  0  0  0  0
 14 13  1  0  0  0  0
 17 13  1  0  0  0  0
 30 13  1  0  0  0  0
 15 14  1  0  0  0  0
 16 14  2  0  0  0  0
 31 15  1  0  0  0  0
 32 15  1  0  0  0  0
 18 17  1  0  0  0  0
 33 17  1  0  0  0  0
 34 17  1  0  0  0  0
 19 18  1  0  0  0  0
 35 18  1  0  0  0  0
 36 18  1  0  0  0  0
 20 19  2  0  0  0  0
 10  3  1  0  0  0  0
 19 11  1  0  0  0  0
M  END
>  <FittedScore>
-33.54

$$$$
