A71EV2A-x5604a_best-RMSD
  FITTED

 47 49     0  0  0  0  0  0  0999 V2000
    9.8262   16.9147   19.3175 O    0  0  0  0  0  0  0  0  0  0  0  0
   10.3243   15.8684   19.6906 C    0  0  0  0  0  0  0  0  0  0  0  0
   10.7114   14.9333   18.8003 N    0  0  0  0  0  0  0  0  0  0  0  0
   10.3107   15.3834   21.1385 C    0  0  0  0  0  0  0  0  0  0  0  0
   11.1564   16.3026   22.0643 C    0  0  0  0  0  0  0  0  0  0  0  0
   11.1160   15.7643   23.5171 C    0  0  0  0  0  0  0  0  0  0  0  0
    9.6588   15.5216   24.0052 C    0  0  0  0  0  0  0  0  0  0  0  0
    8.8601   15.1976   21.6833 C    0  0  0  0  0  0  0  0  0  0  0  0
    8.8081   14.6692   23.0885 N    0  0  0  0  0  0  0  0  0  0  0  0
    7.9561   13.6459   23.4685 C    0  0  0  0  0  0  0  0  0  0  0  0
    7.1687   13.1391   22.6789 O    0  0  0  0  0  0  0  0  0  0  0  0
    7.9484   13.1917   24.9382 C    0  0  0  0  0  0  0  0  0  0  0  0
    7.1666   11.9020   25.2084 C    0  0  0  0  0  0  0  0  0  0  0  0
    7.7031   10.6156   24.9465 C    0  0  0  0  0  0  0  0  0  0  0  0
    9.3672   10.4189   24.2888 S    0  0  0  0  0  0  0  0  0  0  0  0
    9.5341    8.7356   23.6235 C    0  0  0  0  0  0  0  0  0  0  0  0
    5.8678   12.0256   25.7420 C    0  0  0  0  0  0  0  0  0  0  0  0
    5.0812   10.8926   26.0344 C    0  0  0  0  0  0  0  0  0  0  0  0
    5.6246    9.6259   25.7607 C    0  0  0  0  0  0  0  0  0  0  0  0
    6.9098    9.4917   25.2282 C    0  0  0  0  0  0  0  0  0  0  0  0
    3.8146   10.9892   26.5963 N    0  0  0  0  0  0  0  0  0  0  0  0
    2.9934   12.0483   26.2654 N    0  0  0  0  0  0  0  0  0  0  0  0
    1.7714   11.7435   27.0390 C    0  0  0  0  0  0  0  0  0  0  0  0
    1.9176   10.5819   27.7522 C    0  0  0  0  0  0  0  0  0  0  0  0
    3.1818   10.1358   27.4706 C    0  0  0  0  0  0  0  0  0  0  0  0
   10.7643   15.1678   17.8171 H    0  0  0  0  0  0  0  0  0  0  0  0
   10.8300   13.9614   19.0937 H    0  0  0  0  0  0  0  0  0  0  0  0
   10.7797   14.3939   21.1860 H    0  0  0  0  0  0  0  0  0  0  0  0
   12.1914   16.3491   21.7110 H    0  0  0  0  0  0  0  0  0  0  0  0
   10.7689   17.3283   22.0399 H    0  0  0  0  0  0  0  0  0  0  0  0
   11.6798   14.8280   23.5774 H    0  0  0  0  0  0  0  0  0  0  0  0
   11.6114   16.4743   24.1835 H    0  0  0  0  0  0  0  0  0  0  0  0
    9.7469   15.1232   25.0134 H    0  0  0  0  0  0  0  0  0  0  0  0
    9.1609   16.4885   24.1308 H    0  0  0  0  0  0  0  0  0  0  0  0
    8.3395   14.5406   20.9810 H    0  0  0  0  0  0  0  0  0  0  0  0
    8.3191   16.1490   21.6485 H    0  0  0  0  0  0  0  0  0  0  0  0
    8.9651   13.0443   25.3057 H    0  0  0  0  0  0  0  0  0  0  0  0
    7.5428   14.0067   25.5444 H    0  0  0  0  0  0  0  0  0  0  0  0
   10.4677    8.6608   23.0643 H    0  0  0  0  0  0  0  0  0  0  0  0
    8.7026    8.5160   22.9503 H    0  0  0  0  0  0  0  0  0  0  0  0
    9.5591    8.0131   24.4392 H    0  0  0  0  0  0  0  0  0  0  0  0
    5.4777   13.0219   25.9413 H    0  0  0  0  0  0  0  0  0  0  0  0
    5.0579    8.7182   25.9528 H    0  0  0  0  0  0  0  0  0  0  0  0
    7.2684    8.4850   25.0543 H    0  0  0  0  0  0  0  0  0  0  0  0
    0.8919   12.3801   27.0139 H    0  0  0  0  0  0  0  0  0  0  0  0
    1.1879   10.1115   28.4045 H    0  0  0  0  0  0  0  0  0  0  0  0
    3.6264    9.2354   27.8889 H    0  0  0  0  0  0  0  0  0  0  0  0
  9 10  1  0  0  0  0
  7  9  1  0  0  0  0
  6  7  1  0  0  0  0
  5  6  1  0  0  0  0
  4  5  1  0  0  0  0
  2  4  1  0  0  0  0
  1  2  2  0  0  0  0
  3  2  1  0  0  0  0
 26  3  1  0  0  0  0
 27  3  1  0  0  0  0
 28  4  1  0  0  0  0
 29  5  1  0  0  0  0
 30  5  1  0  0  0  0
 31  6  1  0  0  0  0
 32  6  1  0  0  0  0
 33  7  1  0  0  0  0
 34  7  1  0  0  0  0
  8  4  1  0  0  0  0
 35  8  1  0  0  0  0
 36  8  1  0  0  0  0
 11 10  2  0  0  0  0
 12 10  1  0  0  0  0
 37 12  1  0  0  0  0
 38 12  1  0  0  0  0
 13 12  1  0  0  0  0
 14 13  1  0  0  0  0
 20 14  2  0  0  0  0
 15 14  1  0  0  0  0
 16 15  1  0  0  0  0
 39 16  1  0  0  0  0
 40 16  1  0  0  0  0
 41 16  1  0  0  0  0
 17 13  2  0  0  0  0
 42 17  1  0  0  0  0
 18 17  1  0  0  0  0
 19 18  2  0  0  0  0
 43 19  1  0  0  0  0
 44 20  1  0  0  0  0
 21 18  1  0  0  0  0
 25 21  1  0  0  0  0
 22 21  1  0  0  0  0
 23 22  2  0  0  0  0
 45 23  1  0  0  0  0
 24 23  1  0  0  0  0
 46 24  1  0  0  0  0
 47 25  1  0  0  0  0
  9  8  1  0  0  0  0
 20 19  1  0  0  0  0
 25 24  2  0  0  0  0
M  END
>  <FittedScore>
-33.26

$$$$
