A71EV2A-x5604a_lowest-energy
  FITTED

 47 49     0  0  0  0  0  0  0999 V2000
    9.8321   16.8718   19.4346 O    0  0  0  0  0  0  0  0  0  0  0  0
   10.2791   15.7811   19.7469 C    0  0  0  0  0  0  0  0  0  0  0  0
   10.7336   14.9272   18.8116 N    0  0  0  0  0  0  0  0  0  0  0  0
   10.2283   15.2112   21.1639 C    0  0  0  0  0  0  0  0  0  0  0  0
   11.2026   15.9740   22.1076 C    0  0  0  0  0  0  0  0  0  0  0  0
   11.0530   15.4789   23.5661 C    0  0  0  0  0  0  0  0  0  0  0  0
    9.5642   15.4843   24.0162 C    0  0  0  0  0  0  0  0  0  0  0  0
    8.7645   15.1657   21.7093 C    0  0  0  0  0  0  0  0  0  0  0  0
    8.6528   14.6761   23.1202 N    0  0  0  0  0  0  0  0  0  0  0  0
    7.7357   13.7138   23.5036 C    0  0  0  0  0  0  0  0  0  0  0  0
    6.9670   13.1973   22.6986 O    0  0  0  0  0  0  0  0  0  0  0  0
    7.6489   13.3116   24.9875 C    0  0  0  0  0  0  0  0  0  0  0  0
    6.9670   11.9618   25.2384 C    0  0  0  0  0  0  0  0  0  0  0  0
    7.5895   10.7295   24.9088 C    0  0  0  0  0  0  0  0  0  0  0  0
    9.2209   10.6942   24.1462 S    0  0  0  0  0  0  0  0  0  0  0  0
    9.6501    8.9760   23.7038 C    0  0  0  0  0  0  0  0  0  0  0  0
    5.6971   11.9658   25.8507 C    0  0  0  0  0  0  0  0  0  0  0  0
    5.0170   10.7641   26.1428 C    0  0  0  0  0  0  0  0  0  0  0  0
    5.6431    9.5568   25.7936 C    0  0  0  0  0  0  0  0  0  0  0  0
    6.9053    9.5386   25.1963 C    0  0  0  0  0  0  0  0  0  0  0  0
    3.7797   10.7374   26.7733 N    0  0  0  0  0  0  0  0  0  0  0  0
    2.8681   11.7481   26.5403 N    0  0  0  0  0  0  0  0  0  0  0  0
    1.7162   11.3200   27.3597 C    0  0  0  0  0  0  0  0  0  0  0  0
    1.9766   10.1334   27.9961 C    0  0  0  0  0  0  0  0  0  0  0  0
    3.2535    9.7978   27.6307 C    0  0  0  0  0  0  0  0  0  0  0  0
   10.8983   13.9600   19.0811 H    0  0  0  0  0  0  0  0  0  0  0  0
   10.7922   15.2070   17.8350 H    0  0  0  0  0  0  0  0  0  0  0  0
   10.5731   14.1708   21.1500 H    0  0  0  0  0  0  0  0  0  0  0  0
   12.2320   15.8203   21.7757 H    0  0  0  0  0  0  0  0  0  0  0  0
   11.0125   17.0512   22.0706 H    0  0  0  0  0  0  0  0  0  0  0  0
   11.4562   14.4637   23.6578 H    0  0  0  0  0  0  0  0  0  0  0  0
   11.6408   16.1164   24.2312 H    0  0  0  0  0  0  0  0  0  0  0  0
    9.5461   15.1821   25.0626 H    0  0  0  0  0  0  0  0  0  0  0  0
    9.2046   16.5193   24.0291 H    0  0  0  0  0  0  0  0  0  0  0  0
    8.1952   14.5444   21.0114 H    0  0  0  0  0  0  0  0  0  0  0  0
    8.3041   16.1569   21.6510 H    0  0  0  0  0  0  0  0  0  0  0  0
    8.6374   13.2315   25.4473 H    0  0  0  0  0  0  0  0  0  0  0  0
    7.1421   14.1164   25.5307 H    0  0  0  0  0  0  0  0  0  0  0  0
    8.9155    8.5620   23.0093 H    0  0  0  0  0  0  0  0  0  0  0  0
    9.6930    8.3624   24.6036 H    0  0  0  0  0  0  0  0  0  0  0  0
   10.6337    8.9626   23.2297 H    0  0  0  0  0  0  0  0  0  0  0  0
    5.2442   12.9206   26.1099 H    0  0  0  0  0  0  0  0  0  0  0  0
    5.1590    8.6008   25.9800 H    0  0  0  0  0  0  0  0  0  0  0  0
    7.3294    8.5682   24.9732 H    0  0  0  0  0  0  0  0  0  0  0  0
    0.7988   11.8978   27.4244 H    0  0  0  0  0  0  0  0  0  0  0  0
    1.3171    9.5810   28.6591 H    0  0  0  0  0  0  0  0  0  0  0  0
    3.7803    8.9115   27.9808 H    0  0  0  0  0  0  0  0  0  0  0  0
  9 10  1  0  0  0  0
  7  9  1  0  0  0  0
  6  7  1  0  0  0  0
  5  6  1  0  0  0  0
  4  5  1  0  0  0  0
  2  4  1  0  0  0  0
  1  2  2  0  0  0  0
  3  2  1  0  0  0  0
 26  3  1  0  0  0  0
 27  3  1  0  0  0  0
 28  4  1  0  0  0  0
 29  5  1  0  0  0  0
 30  5  1  0  0  0  0
 31  6  1  0  0  0  0
 32  6  1  0  0  0  0
 33  7  1  0  0  0  0
 34  7  1  0  0  0  0
  8  4  1  0  0  0  0
 35  8  1  0  0  0  0
 36  8  1  0  0  0  0
 11 10  2  0  0  0  0
 12 10  1  0  0  0  0
 37 12  1  0  0  0  0
 38 12  1  0  0  0  0
 13 12  1  0  0  0  0
 14 13  1  0  0  0  0
 20 14  2  0  0  0  0
 15 14  1  0  0  0  0
 16 15  1  0  0  0  0
 39 16  1  0  0  0  0
 40 16  1  0  0  0  0
 41 16  1  0  0  0  0
 17 13  2  0  0  0  0
 42 17  1  0  0  0  0
 18 17  1  0  0  0  0
 19 18  2  0  0  0  0
 43 19  1  0  0  0  0
 44 20  1  0  0  0  0
 21 18  1  0  0  0  0
 25 21  1  0  0  0  0
 22 21  1  0  0  0  0
 23 22  2  0  0  0  0
 45 23  1  0  0  0  0
 24 23  1  0  0  0  0
 46 24  1  0  0  0  0
 47 25  1  0  0  0  0
  9  8  1  0  0  0  0
 20 19  1  0  0  0  0
 25 24  2  0  0  0  0
M  END
>  <FittedScore>
-32.71

$$$$
