A71EV2A-x7301a_best-RMSD
  FITTED

 49 51     0  0  0  0  0  0  0999 V2000
    9.2551    8.8673   23.3905 C    0  0  0  0  0  0  0  0  0  0  0  0
    9.2144   10.6132   23.9083 S    0  0  0  0  0  0  0  0  0  0  0  0
    7.7521   10.8684   24.9234 C    0  0  0  0  0  0  0  0  0  0  0  0
    6.9827    9.8011   25.4161 C    0  0  0  0  0  0  0  0  0  0  0  0
    5.8790   10.0269   26.2446 C    0  0  0  0  0  0  0  0  0  0  0  0
    5.4804   11.3387   26.5933 C    0  0  0  0  0  0  0  0  0  0  0  0
    4.3210   11.5795   27.5132 C    0  0  0  0  0  0  0  0  0  0  0  0
    4.4029   11.0882   28.8410 C    0  0  0  0  0  0  0  0  0  0  0  0
    3.3414   11.2751   29.7289 C    0  0  0  0  0  0  0  0  0  0  0  0
    2.1989   11.9615   29.2910 C    0  0  0  0  0  0  0  0  0  0  0  0
    2.0973   12.4599   28.0289 N    0  0  0  0  0  0  0  0  0  0  0  0
    3.1207   12.2751   27.1519 C    0  0  0  0  0  0  0  0  0  0  0  0
    2.9225   12.7743   25.8897 N    0  0  0  0  0  0  0  0  0  0  0  0
    6.2486   12.4121   26.0903 C    0  0  0  0  0  0  0  0  0  0  0  0
    7.3523   12.1821   25.2582 C    0  0  0  0  0  0  0  0  0  0  0  0
    8.0148   13.2994   24.7875 O    0  0  0  0  0  0  0  0  0  0  0  0
    7.9255   13.7491   23.5041 C    0  0  0  0  0  0  0  0  0  0  0  0
    7.1635   13.2227   22.7029 O    0  0  0  0  0  0  0  0  0  0  0  0
    8.8077   14.7460   23.1537 N    0  0  0  0  0  0  0  0  0  0  0  0
    9.8538   15.3522   24.0563 C    0  0  0  0  0  0  0  0  0  0  0  0
   11.3004   15.3057   23.4762 C    0  0  0  0  0  0  0  0  0  0  0  0
   11.3731   15.8361   22.0192 C    0  0  0  0  0  0  0  0  0  0  0  0
   10.2803   15.1651   21.1363 C    0  0  0  0  0  0  0  0  0  0  0  0
   10.3389   15.6889   19.7012 C    0  0  0  0  0  0  0  0  0  0  0  0
   10.8425   14.8239   18.8000 N    0  0  0  0  0  0  0  0  0  0  0  0
    9.9462   16.7860   19.3545 O    0  0  0  0  0  0  0  0  0  0  0  0
    8.8725   15.3409   21.7807 C    0  0  0  0  0  0  0  0  0  0  0  0
    8.3314    8.5974   22.8761 H    0  0  0  0  0  0  0  0  0  0  0  0
    9.4016    8.2195   24.2555 H    0  0  0  0  0  0  0  0  0  0  0  0
   10.0932    8.7267   22.7084 H    0  0  0  0  0  0  0  0  0  0  0  0
    7.2371    8.7733   25.1935 H    0  0  0  0  0  0  0  0  0  0  0  0
    5.3247    9.1708   26.6202 H    0  0  0  0  0  0  0  0  0  0  0  0
    5.2922   10.5634   29.1835 H    0  0  0  0  0  0  0  0  0  0  0  0
    3.3935   10.8778   30.7375 H    0  0  0  0  0  0  0  0  0  0  0  0
    1.3693   12.0978   29.9825 H    0  0  0  0  0  0  0  0  0  0  0  0
    3.5953   12.5360   25.1540 H    0  0  0  0  0  0  0  0  0  0  0  0
    2.0667   13.2963   25.6757 H    0  0  0  0  0  0  0  0  0  0  0  0
    5.9847   13.4391   26.3433 H    0  0  0  0  0  0  0  0  0  0  0  0
    9.9129   14.8540   25.0306 H    0  0  0  0  0  0  0  0  0  0  0  0
    9.5798   16.3900   24.2756 H    0  0  0  0  0  0  0  0  0  0  0  0
   11.6668   14.2758   23.5230 H    0  0  0  0  0  0  0  0  0  0  0  0
   11.9605   15.9050   24.1104 H    0  0  0  0  0  0  0  0  0  0  0  0
   12.3652   15.6211   21.6124 H    0  0  0  0  0  0  0  0  0  0  0  0
   11.2509   16.9244   22.0139 H    0  0  0  0  0  0  0  0  0  0  0  0
   10.4869   14.0825   21.1328 H    0  0  0  0  0  0  0  0  0  0  0  0
   10.8152   15.0398   17.8110 H    0  0  0  0  0  0  0  0  0  0  0  0
   11.0702   13.8800   19.0970 H    0  0  0  0  0  0  0  0  0  0  0  0
    8.1363   14.9029   21.1046 H    0  0  0  0  0  0  0  0  0  0  0  0
    8.6351   16.4122   21.8345 H    0  0  0  0  0  0  0  0  0  0  0  0
 15 16  1  0  0  0  0
 14 15  2  0  0  0  0
  6 14  1  0  0  0  0
  5  6  2  0  0  0  0
  4  5  1  0  0  0  0
  3  4  2  0  0  0  0
  2  3  1  0  0  0  0
  1  2  1  0  0  0  0
 28  1  1  0  0  0  0
 29  1  1  0  0  0  0
 30  1  1  0  0  0  0
 31  4  1  0  0  0  0
 32  5  1  0  0  0  0
  7  6  1  0  0  0  0
  8  7  2  0  0  0  0
  9  8  1  0  0  0  0
 33  8  1  0  0  0  0
 10  9  2  0  0  0  0
 34  9  1  0  0  0  0
 11 10  1  0  0  0  0
 35 10  1  0  0  0  0
 12 11  2  0  0  0  0
 13 12  1  0  0  0  0
 36 13  1  0  0  0  0
 37 13  1  0  0  0  0
 38 14  1  0  0  0  0
 17 16  1  0  0  0  0
 18 17  2  0  0  0  0
 19 17  1  0  0  0  0
 20 19  1  0  0  0  0
 21 20  1  0  0  0  0
 39 20  1  0  0  0  0
 40 20  1  0  0  0  0
 22 21  1  0  0  0  0
 41 21  1  0  0  0  0
 42 21  1  0  0  0  0
 23 22  1  0  0  0  0
 43 22  1  0  0  0  0
 44 22  1  0  0  0  0
 24 23  1  0  0  0  0
 27 23  1  0  0  0  0
 45 23  1  0  0  0  0
 25 24  1  0  0  0  0
 26 24  2  0  0  0  0
 46 25  1  0  0  0  0
 47 25  1  0  0  0  0
 48 27  1  0  0  0  0
 49 27  1  0  0  0  0
 12  7  1  0  0  0  0
 15  3  1  0  0  0  0
 27 19  1  0  0  0  0
M  END
>  <FittedScore>
-42.01

$$$$
