A71EV2A-x4415a_best-RMSD
  FITTED

 40 41     0  0  0  0  0  0  0999 V2000
    9.7271   16.6805   19.3196 O    0  0  0  0  0  0  0  0  0  0  0  0
   10.2874   15.6676   19.6809 C    0  0  0  0  0  0  0  0  0  0  0  0
   10.8683   14.8586   18.7774 N    0  0  0  0  0  0  0  0  0  0  0  0
   10.2561   15.1514   21.1206 C    0  0  0  0  0  0  0  0  0  0  0  0
   11.3398   15.8466   21.9924 C    0  0  0  0  0  0  0  0  0  0  0  0
   11.2770   15.3398   23.4595 C    0  0  0  0  0  0  0  0  0  0  0  0
    9.8310   15.3463   24.0392 C    0  0  0  0  0  0  0  0  0  0  0  0
    8.8481   15.2777   21.7768 C    0  0  0  0  0  0  0  0  0  0  0  0
    8.8178   14.6721   23.1462 N    0  0  0  0  0  0  0  0  0  0  0  0
    7.9830   13.6180   23.4582 C    0  0  0  0  0  0  0  0  0  0  0  0
    7.1876   13.1445   22.6621 O    0  0  0  0  0  0  0  0  0  0  0  0
    8.0080   13.1675   24.7401 N    0  0  0  0  0  0  0  0  0  0  0  0
    7.3889   11.9951   25.2841 C    0  0  0  0  0  0  0  0  0  0  0  0
    7.7318   10.6962   24.8427 C    0  0  0  0  0  0  0  0  0  0  0  0
    8.7340   10.5688   23.8812 O    0  0  0  0  0  0  0  0  0  0  0  0
    9.3547    9.3334   23.4663 C    0  0  0  0  0  0  0  0  0  0  0  0
    6.4199   12.1666   26.2876 C    0  0  0  0  0  0  0  0  0  0  0  0
    5.7418   11.0597   26.8193 C    0  0  0  0  0  0  0  0  0  0  0  0
    4.7009   11.2466   27.7978 C    0  0  0  0  0  0  0  0  0  0  0  0
    3.8697   11.4001   28.5590 N    0  0  0  0  0  0  0  0  0  0  0  0
    6.0580    9.7733   26.3682 C    0  0  0  0  0  0  0  0  0  0  0  0
    7.0429    9.5918   25.3884 C    0  0  0  0  0  0  0  0  0  0  0  0
   11.1469   13.9223   19.0571 H    0  0  0  0  0  0  0  0  0  0  0  0
   10.8302   15.0914   17.7875 H    0  0  0  0  0  0  0  0  0  0  0  0
   10.4872   14.0794   21.1144 H    0  0  0  0  0  0  0  0  0  0  0  0
   12.3308   15.6340   21.5810 H    0  0  0  0  0  0  0  0  0  0  0  0
   11.2116   16.9336   21.9682 H    0  0  0  0  0  0  0  0  0  0  0  0
   11.6773   14.3240   23.5049 H    0  0  0  0  0  0  0  0  0  0  0  0
   11.9251   15.9577   24.0822 H    0  0  0  0  0  0  0  0  0  0  0  0
    9.8919   14.8999   25.0328 H    0  0  0  0  0  0  0  0  0  0  0  0
    9.5165   16.3819   24.2082 H    0  0  0  0  0  0  0  0  0  0  0  0
    8.1240   14.8207   21.0971 H    0  0  0  0  0  0  0  0  0  0  0  0
    8.5484   16.3280   21.8462 H    0  0  0  0  0  0  0  0  0  0  0  0
    8.3528   13.7939   25.4584 H    0  0  0  0  0  0  0  0  0  0  0  0
   10.1730    9.5660   22.7810 H    0  0  0  0  0  0  0  0  0  0  0  0
    8.6342    8.6901   22.9581 H    0  0  0  0  0  0  0  0  0  0  0  0
    9.7721    8.8155   24.3360 H    0  0  0  0  0  0  0  0  0  0  0  0
    6.1733   13.1691   26.6370 H    0  0  0  0  0  0  0  0  0  0  0  0
    5.5420    8.9076   26.7782 H    0  0  0  0  0  0  0  0  0  0  0  0
    7.2547    8.5788   25.0603 H    0  0  0  0  0  0  0  0  0  0  0  0
  9 10  1  0  0  0  0
  7  9  1  0  0  0  0
  6  7  1  0  0  0  0
  5  6  1  0  0  0  0
  4  5  1  0  0  0  0
  2  4  1  0  0  0  0
  1  2  2  0  0  0  0
  3  2  1  0  0  0  0
 23  3  1  0  0  0  0
 24  3  1  0  0  0  0
 25  4  1  0  0  0  0
 26  5  1  0  0  0  0
 27  5  1  0  0  0  0
 28  6  1  0  0  0  0
 29  6  1  0  0  0  0
 30  7  1  0  0  0  0
 31  7  1  0  0  0  0
  8  4  1  0  0  0  0
 32  8  1  0  0  0  0
 33  8  1  0  0  0  0
 11 10  2  0  0  0  0
 12 10  1  0  0  0  0
 34 12  1  0  0  0  0
 13 12  1  0  0  0  0
 14 13  1  0  0  0  0
 22 14  2  0  0  0  0
 15 14  1  0  0  0  0
 16 15  1  0  0  0  0
 35 16  1  0  0  0  0
 36 16  1  0  0  0  0
 37 16  1  0  0  0  0
 17 13  2  0  0  0  0
 38 17  1  0  0  0  0
 18 17  1  0  0  0  0
 19 18  1  0  0  0  0
 20 19  3  0  0  0  0
 21 18  2  0  0  0  0
 39 21  1  0  0  0  0
 40 22  1  0  0  0  0
  9  8  1  0  0  0  0
 22 21  1  0  0  0  0
M  END
>  <FittedScore>
-36.16

$$$$
