A71EV2A-x4415a_lowest-energy
  FITTED

 40 41     0  0  0  0  0  0  0999 V2000
    9.8617   16.7886   19.3277 O    0  0  0  0  0  0  0  0  0  0  0  0
   10.3355   15.7302   19.6743 C    0  0  0  0  0  0  0  0  0  0  0  0
   10.8493   14.8974   18.7477 N    0  0  0  0  0  0  0  0  0  0  0  0
   10.2750   15.2125   21.1059 C    0  0  0  0  0  0  0  0  0  0  0  0
   11.3297   15.9191   22.0043 C    0  0  0  0  0  0  0  0  0  0  0  0
   11.2214   15.4294   23.4757 C    0  0  0  0  0  0  0  0  0  0  0  0
    9.7572   15.4568   24.0070 C    0  0  0  0  0  0  0  0  0  0  0  0
    8.8482   15.3381   21.7204 C    0  0  0  0  0  0  0  0  0  0  0  0
    8.7779   14.7557   23.0967 N    0  0  0  0  0  0  0  0  0  0  0  0
    7.9839   13.6701   23.4008 C    0  0  0  0  0  0  0  0  0  0  0  0
    7.2158   13.1725   22.5946 O    0  0  0  0  0  0  0  0  0  0  0  0
    8.0377   13.1940   24.6756 N    0  0  0  0  0  0  0  0  0  0  0  0
    7.4669   11.9861   25.1984 C    0  0  0  0  0  0  0  0  0  0  0  0
    7.8561   10.7070   24.7393 C    0  0  0  0  0  0  0  0  0  0  0  0
    8.8970   10.6232   23.8210 O    0  0  0  0  0  0  0  0  0  0  0  0
    9.5462    9.4050   23.3843 C    0  0  0  0  0  0  0  0  0  0  0  0
    6.5096   12.0993   26.2195 C    0  0  0  0  0  0  0  0  0  0  0  0
    5.8699   10.9589   26.7255 C    0  0  0  0  0  0  0  0  0  0  0  0
    4.8475   11.0907   27.7371 C    0  0  0  0  0  0  0  0  0  0  0  0
    4.0354   11.2000   28.5232 N    0  0  0  0  0  0  0  0  0  0  0  0
    6.2015    9.6944   26.2237 C    0  0  0  0  0  0  0  0  0  0  0  0
    7.1979    9.5666   25.2462 C    0  0  0  0  0  0  0  0  0  0  0  0
   10.7809   15.1382   17.7670 H    0  0  0  0  0  0  0  0  0  0  0  0
   11.0758   13.9364   19.0049 H    0  0  0  0  0  0  0  0  0  0  0  0
   10.5132   14.1437   21.0963 H    0  0  0  0  0  0  0  0  0  0  0  0
   12.3346   15.7119   21.6263 H    0  0  0  0  0  0  0  0  0  0  0  0
   11.1997   17.0074   21.9692 H    0  0  0  0  0  0  0  0  0  0  0  0
   11.6104   14.4089   23.5508 H    0  0  0  0  0  0  0  0  0  0  0  0
   11.8529   16.0543   24.1137 H    0  0  0  0  0  0  0  0  0  0  0  0
    9.7723   15.0541   25.0202 H    0  0  0  0  0  0  0  0  0  0  0  0
    9.4399   16.4973   24.1237 H    0  0  0  0  0  0  0  0  0  0  0  0
    8.1399   14.8770   21.0267 H    0  0  0  0  0  0  0  0  0  0  0  0
    8.5441   16.3880   21.7667 H    0  0  0  0  0  0  0  0  0  0  0  0
    8.3358   13.8346   25.4037 H    0  0  0  0  0  0  0  0  0  0  0  0
    8.8335    8.7526   22.8707 H    0  0  0  0  0  0  0  0  0  0  0  0
    9.9881    8.8804   24.2324 H    0  0  0  0  0  0  0  0  0  0  0  0
   10.3550    9.6656   22.6961 H    0  0  0  0  0  0  0  0  0  0  0  0
    6.2426   13.0823   26.6024 H    0  0  0  0  0  0  0  0  0  0  0  0
    5.7096    8.7989   26.6003 H    0  0  0  0  0  0  0  0  0  0  0  0
    7.4538    8.5678   24.9038 H    0  0  0  0  0  0  0  0  0  0  0  0
  9 10  1  0  0  0  0
  7  9  1  0  0  0  0
  6  7  1  0  0  0  0
  5  6  1  0  0  0  0
  4  5  1  0  0  0  0
  2  4  1  0  0  0  0
  1  2  2  0  0  0  0
  3  2  1  0  0  0  0
 23  3  1  0  0  0  0
 24  3  1  0  0  0  0
 25  4  1  0  0  0  0
 26  5  1  0  0  0  0
 27  5  1  0  0  0  0
 28  6  1  0  0  0  0
 29  6  1  0  0  0  0
 30  7  1  0  0  0  0
 31  7  1  0  0  0  0
  8  4  1  0  0  0  0
 32  8  1  0  0  0  0
 33  8  1  0  0  0  0
 11 10  2  0  0  0  0
 12 10  1  0  0  0  0
 34 12  1  0  0  0  0
 13 12  1  0  0  0  0
 14 13  1  0  0  0  0
 22 14  2  0  0  0  0
 15 14  1  0  0  0  0
 16 15  1  0  0  0  0
 35 16  1  0  0  0  0
 36 16  1  0  0  0  0
 37 16  1  0  0  0  0
 17 13  2  0  0  0  0
 38 17  1  0  0  0  0
 18 17  1  0  0  0  0
 19 18  1  0  0  0  0
 20 19  3  0  0  0  0
 21 18  2  0  0  0  0
 39 21  1  0  0  0  0
 40 22  1  0  0  0  0
  9  8  1  0  0  0  0
 22 21  1  0  0  0  0
M  END
>  <FittedScore>
-36.27

$$$$
