A71EV2A-x4742b_best-RMSD
  FITTED

 41 43     0  0  0  0  0  0  0999 V2000
    7.6182   12.9264   23.0486 O    0  0  0  0  0  0  0  0  0  0  0  0
    8.4411   13.4532   23.7814 C    0  0  0  0  0  0  0  0  0  0  0  0
    9.1292   14.5824   23.3658 N    0  0  0  0  0  0  0  0  0  0  0  0
   10.1344   15.3880   24.1501 C    0  0  0  0  0  0  0  0  0  0  0  0
   11.5422   15.4449   23.4917 C    0  0  0  0  0  0  0  0  0  0  0  0
   11.4714   15.9251   22.0198 C    0  0  0  0  0  0  0  0  0  0  0  0
    9.0115   15.1543   21.9800 C    0  0  0  0  0  0  0  0  0  0  0  0
   10.3843   15.1355   21.2308 C    0  0  0  0  0  0  0  0  0  0  0  0
   10.2782   15.6317   19.7885 C    0  0  0  0  0  0  0  0  0  0  0  0
    9.8551   16.7250   19.4648 O    0  0  0  0  0  0  0  0  0  0  0  0
   10.5938   14.7290   18.8427 N    0  0  0  0  0  0  0  0  0  0  0  0
    8.7824   12.7494   25.1236 C    0  0  0  0  0  0  0  0  0  0  0  0
    7.5485   12.0742   25.7485 C    0  0  0  0  0  0  0  0  0  0  0  0
    6.6132   12.8980   26.4108 C    0  0  0  0  0  0  0  0  0  0  0  0
    5.4726   12.3517   27.0065 C    0  0  0  0  0  0  0  0  0  0  0  0
    5.2396   10.9736   26.9396 C    0  0  0  0  0  0  0  0  0  0  0  0
    6.1530   10.1441   26.2739 C    0  0  0  0  0  0  0  0  0  0  0  0
    7.3072   10.6776   25.6771 C    0  0  0  0  0  0  0  0  0  0  0  0
    8.4055    9.5278   24.8564 S    0  0  0  0  0  0  0  0  0  0  0  0
    9.7319   10.5608   24.1661 C    0  0  0  0  0  0  0  0  0  0  0  0
   10.0299   11.8296   24.9878 C    0  0  0  0  0  0  0  0  0  0  0  0
    9.7546   16.4089   24.2698 H    0  0  0  0  0  0  0  0  0  0  0  0
   10.2890   15.0418   25.1668 H    0  0  0  0  0  0  0  0  0  0  0  0
   12.1868   16.1158   24.0651 H    0  0  0  0  0  0  0  0  0  0  0  0
   12.0045   14.4549   23.5302 H    0  0  0  0  0  0  0  0  0  0  0  0
   11.2524   16.9972   22.0008 H    0  0  0  0  0  0  0  0  0  0  0  0
   12.4488   15.7939   21.5466 H    0  0  0  0  0  0  0  0  0  0  0  0
    8.6284   16.1804   22.0370 H    0  0  0  0  0  0  0  0  0  0  0  0
    8.2784   14.6270   21.3650 H    0  0  0  0  0  0  0  0  0  0  0  0
   10.7171   14.0887   21.2122 H    0  0  0  0  0  0  0  0  0  0  0  0
   10.5150   14.9744   17.8697 H    0  0  0  0  0  0  0  0  0  0  0  0
   10.8190   13.7709   19.1005 H    0  0  0  0  0  0  0  0  0  0  0  0
    9.0563   13.4821   25.8810 H    0  0  0  0  0  0  0  0  0  0  0  0
    6.7669   13.9743   26.4630 H    0  0  0  0  0  0  0  0  0  0  0  0
    4.7679   13.0024   27.5171 H    0  0  0  0  0  0  0  0  0  0  0  0
    4.3480   10.5479   27.3929 H    0  0  0  0  0  0  0  0  0  0  0  0
    5.9492    9.0788   26.2076 H    0  0  0  0  0  0  0  0  0  0  0  0
   10.6280    9.9427   24.0985 H    0  0  0  0  0  0  0  0  0  0  0  0
    9.4544   10.8205   23.1434 H    0  0  0  0  0  0  0  0  0  0  0  0
   10.3699   11.5368   25.9845 H    0  0  0  0  0  0  0  0  0  0  0  0
   10.8596   12.3742   24.5320 H    0  0  0  0  0  0  0  0  0  0  0  0
  2  1  2  0  0  0  0
  3  2  1  0  0  0  0
  4  3  1  0  0  0  0
 22  4  1  0  0  0  0
 23  4  1  0  0  0  0
  5  4  1  0  0  0  0
 24  5  1  0  0  0  0
 25  5  1  0  0  0  0
  6  5  1  0  0  0  0
 26  6  1  0  0  0  0
 27  6  1  0  0  0  0
  7  3  1  0  0  0  0
 28  7  1  0  0  0  0
 29  7  1  0  0  0  0
  8  6  1  0  0  0  0
  9  8  1  0  0  0  0
 30  8  1  0  0  0  0
 10  9  2  0  0  0  0
 11  9  1  0  0  0  0
 31 11  1  0  0  0  0
 32 11  1  0  0  0  0
 12  2  1  0  0  0  0
 21 12  1  0  0  0  0
 33 12  1  0  0  0  0
 13 12  1  0  0  0  0
 14 13  1  0  0  0  0
 34 14  1  0  0  0  0
 15 14  2  0  0  0  0
 35 15  1  0  0  0  0
 16 15  1  0  0  0  0
 36 16  1  0  0  0  0
 17 16  2  0  0  0  0
 37 17  1  0  0  0  0
 18 17  1  0  0  0  0
 19 18  1  0  0  0  0
 20 19  1  0  0  0  0
 38 20  1  0  0  0  0
 39 20  1  0  0  0  0
 40 21  1  0  0  0  0
 41 21  1  0  0  0  0
  8  7  1  0  0  0  0
 18 13  2  0  0  0  0
 21 20  1  0  0  0  0
M  END
>  <FittedScore>
-35.11

$$$$
