A71EV2A-x4742b_lowest-energy
  FITTED

 41 43     0  0  0  0  0  0  0999 V2000
    7.5833   12.9495   23.0146 O    0  0  0  0  0  0  0  0  0  0  0  0
    8.3879   13.5079   23.7404 C    0  0  0  0  0  0  0  0  0  0  0  0
    9.0976   14.6118   23.2847 N    0  0  0  0  0  0  0  0  0  0  0  0
   10.0538   15.4741   24.0746 C    0  0  0  0  0  0  0  0  0  0  0  0
   11.4654   15.6218   23.4342 C    0  0  0  0  0  0  0  0  0  0  0  0
   11.3841   16.0791   21.9563 C    0  0  0  0  0  0  0  0  0  0  0  0
    8.9969   15.1333   21.8770 C    0  0  0  0  0  0  0  0  0  0  0  0
   10.3844   15.1874   21.1641 C    0  0  0  0  0  0  0  0  0  0  0  0
   10.2755   15.6356   19.7060 C    0  0  0  0  0  0  0  0  0  0  0  0
    9.8292   16.7132   19.3481 O    0  0  0  0  0  0  0  0  0  0  0  0
   10.6360   14.6997   18.8047 N    0  0  0  0  0  0  0  0  0  0  0  0
    8.6873   12.8754   25.1276 C    0  0  0  0  0  0  0  0  0  0  0  0
    7.4759   12.1348   25.7293 C    0  0  0  0  0  0  0  0  0  0  0  0
    6.4833   12.9000   26.3773 C    0  0  0  0  0  0  0  0  0  0  0  0
    5.3768   12.2817   26.9757 C    0  0  0  0  0  0  0  0  0  0  0  0
    5.2449   10.8886   26.9376 C    0  0  0  0  0  0  0  0  0  0  0  0
    6.2164   10.1157   26.2921 C    0  0  0  0  0  0  0  0  0  0  0  0
    7.3286   10.7229   25.6819 C    0  0  0  0  0  0  0  0  0  0  0  0
    8.5008    9.6355   24.8856 S    0  0  0  0  0  0  0  0  0  0  0  0
    9.8162   10.7323   24.2748 C    0  0  0  0  0  0  0  0  0  0  0  0
    9.9932   12.0303   25.0843 C    0  0  0  0  0  0  0  0  0  0  0  0
    9.6078   16.4674   24.1904 H    0  0  0  0  0  0  0  0  0  0  0  0
   10.2207   15.1361   25.0926 H    0  0  0  0  0  0  0  0  0  0  0  0
   12.0525   16.3481   24.0038 H    0  0  0  0  0  0  0  0  0  0  0  0
   11.9977   14.6693   23.4943 H    0  0  0  0  0  0  0  0  0  0  0  0
   11.0741   17.1290   21.9127 H    0  0  0  0  0  0  0  0  0  0  0  0
   12.3760   16.0187   21.4988 H    0  0  0  0  0  0  0  0  0  0  0  0
    8.5442   16.1322   21.8908 H    0  0  0  0  0  0  0  0  0  0  0  0
    8.3314   14.5315   21.2513 H    0  0  0  0  0  0  0  0  0  0  0  0
   10.7848   14.1661   21.1969 H    0  0  0  0  0  0  0  0  0  0  0  0
   10.5998   14.8992   17.8171 H    0  0  0  0  0  0  0  0  0  0  0  0
   10.8754   13.7559   19.1075 H    0  0  0  0  0  0  0  0  0  0  0  0
    8.8776   13.6640   25.8567 H    0  0  0  0  0  0  0  0  0  0  0  0
    6.5693   13.9850   26.4219 H    0  0  0  0  0  0  0  0  0  0  0  0
    4.6240   12.8893   27.4754 H    0  0  0  0  0  0  0  0  0  0  0  0
    4.3826   10.4083   27.3945 H    0  0  0  0  0  0  0  0  0  0  0  0
    6.0953    9.0340   26.2583 H    0  0  0  0  0  0  0  0  0  0  0  0
   10.7486   10.1645   24.2843 H    0  0  0  0  0  0  0  0  0  0  0  0
    9.5985   10.9593   23.2290 H    0  0  0  0  0  0  0  0  0  0  0  0
   10.3056   11.7889   26.1038 H    0  0  0  0  0  0  0  0  0  0  0  0
   10.8141   12.6104   24.6517 H    0  0  0  0  0  0  0  0  0  0  0  0
  2  1  2  0  0  0  0
  3  2  1  0  0  0  0
  4  3  1  0  0  0  0
 22  4  1  0  0  0  0
 23  4  1  0  0  0  0
  5  4  1  0  0  0  0
 24  5  1  0  0  0  0
 25  5  1  0  0  0  0
  6  5  1  0  0  0  0
 26  6  1  0  0  0  0
 27  6  1  0  0  0  0
  7  3  1  0  0  0  0
 28  7  1  0  0  0  0
 29  7  1  0  0  0  0
  8  6  1  0  0  0  0
  9  8  1  0  0  0  0
 30  8  1  0  0  0  0
 10  9  2  0  0  0  0
 11  9  1  0  0  0  0
 31 11  1  0  0  0  0
 32 11  1  0  0  0  0
 12  2  1  0  0  0  0
 21 12  1  0  0  0  0
 33 12  1  0  0  0  0
 13 12  1  0  0  0  0
 14 13  1  0  0  0  0
 34 14  1  0  0  0  0
 15 14  2  0  0  0  0
 35 15  1  0  0  0  0
 16 15  1  0  0  0  0
 36 16  1  0  0  0  0
 17 16  2  0  0  0  0
 37 17  1  0  0  0  0
 18 17  1  0  0  0  0
 19 18  1  0  0  0  0
 20 19  1  0  0  0  0
 38 20  1  0  0  0  0
 39 20  1  0  0  0  0
 40 21  1  0  0  0  0
 41 21  1  0  0  0  0
  8  7  1  0  0  0  0
 18 13  2  0  0  0  0
 21 20  1  0  0  0  0
M  END
>  <FittedScore>
-35.48

$$$$
