A71EV2A-x4018a_lowest-energy
  FITTED

 43 44     0  0  0  0  0  0  0999 V2000
    9.6612   16.7821   19.2199 O    0  0  0  0  0  0  0  0  0  0  0  0
   10.0292   15.7117   19.6609 C    0  0  0  0  0  0  0  0  0  0  0  0
   10.5665   14.7768   18.8514 N    0  0  0  0  0  0  0  0  0  0  0  0
   10.0075   15.3661   21.1469 C    0  0  0  0  0  0  0  0  0  0  0  0
   11.1447   16.1633   21.8687 C    0  0  0  0  0  0  0  0  0  0  0  0
   11.6566   15.4808   23.1654 C    0  0  0  0  0  0  0  0  0  0  0  0
   10.6676   15.5343   24.3587 C    0  0  0  0  0  0  0  0  0  0  0  0
    8.5639   15.5665   21.7366 C    0  0  0  0  0  0  0  0  0  0  0  0
    8.4467   15.7168   23.2800 C    0  0  0  0  0  0  0  0  0  0  0  0
    9.3735   14.8424   24.0695 N    0  0  0  0  0  0  0  0  0  0  0  0
    9.1863   13.5026   24.3349 C    0  0  0  0  0  0  0  0  0  0  0  0
   10.0234   12.8424   24.9251 O    0  0  0  0  0  0  0  0  0  0  0  0
    8.0115   12.7557   23.7003 C    0  0  0  0  0  0  0  0  0  0  0  0
    7.4006   11.7290   24.6473 C    0  0  0  0  0  0  0  0  0  0  0  0
    7.7118   10.3548   24.5623 C    0  0  0  0  0  0  0  0  0  0  0  0
    8.7245    9.9508   23.6920 O    0  0  0  0  0  0  0  0  0  0  0  0
    9.1328    8.5896   23.4447 C    0  0  0  0  0  0  0  0  0  0  0  0
    6.4838   12.1845   25.6157 C    0  0  0  0  0  0  0  0  0  0  0  0
    5.8286   11.2789   26.4553 C    0  0  0  0  0  0  0  0  0  0  0  0
    6.0739    9.9091   26.3218 C    0  0  0  0  0  0  0  0  0  0  0  0
    6.9978    9.4521   25.3750 C    0  0  0  0  0  0  0  0  0  0  0  0
   10.8318   13.8673   19.2208 H    0  0  0  0  0  0  0  0  0  0  0  0
   10.5870   14.9355   17.8510 H    0  0  0  0  0  0  0  0  0  0  0  0
   10.2286   14.2973   21.2570 H    0  0  0  0  0  0  0  0  0  0  0  0
   12.0064   16.2647   21.2014 H    0  0  0  0  0  0  0  0  0  0  0  0
   10.8189   17.1866   22.0786 H    0  0  0  0  0  0  0  0  0  0  0  0
   11.9373   14.4414   22.9671 H    0  0  0  0  0  0  0  0  0  0  0  0
   12.5778   15.9845   23.4724 H    0  0  0  0  0  0  0  0  0  0  0  0
   11.1561   15.0946   25.2327 H    0  0  0  0  0  0  0  0  0  0  0  0
   10.5096   16.5759   24.6544 H    0  0  0  0  0  0  0  0  0  0  0  0
    7.9431   14.7307   21.4049 H    0  0  0  0  0  0  0  0  0  0  0  0
    8.0966   16.4572   21.3083 H    0  0  0  0  0  0  0  0  0  0  0  0
    7.4141   15.5491   23.5925 H    0  0  0  0  0  0  0  0  0  0  0  0
    8.5910   16.7735   23.5244 H    0  0  0  0  0  0  0  0  0  0  0  0
    7.1848   13.3894   23.3904 H    0  0  0  0  0  0  0  0  0  0  0  0
    8.3612   12.3079   22.7670 H    0  0  0  0  0  0  0  0  0  0  0  0
    9.9516    8.5945   22.7225 H    0  0  0  0  0  0  0  0  0  0  0  0
    8.3143    7.9981   23.0219 H    0  0  0  0  0  0  0  0  0  0  0  0
    9.4845    8.1314   24.3700 H    0  0  0  0  0  0  0  0  0  0  0  0
    6.2692   13.2478   25.7076 H    0  0  0  0  0  0  0  0  0  0  0  0
    5.1195   11.6386   27.1944 H    0  0  0  0  0  0  0  0  0  0  0  0
    5.5541    9.1953   26.9568 H    0  0  0  0  0  0  0  0  0  0  0  0
    7.1750    8.3820   25.3145 H    0  0  0  0  0  0  0  0  0  0  0  0
 10 11  1  0  0  0  0
  7 10  1  0  0  0  0
  6  7  1  0  0  0  0
  5  6  1  0  0  0  0
  4  5  1  0  0  0  0
  2  4  1  0  0  0  0
  1  2  2  0  0  0  0
  3  2  1  0  0  0  0
 22  3  1  0  0  0  0
 23  3  1  0  0  0  0
 24  4  1  0  0  0  0
 25  5  1  0  0  0  0
 26  5  1  0  0  0  0
 27  6  1  0  0  0  0
 28  6  1  0  0  0  0
 29  7  1  0  0  0  0
 30  7  1  0  0  0  0
  8  4  1  0  0  0  0
 31  8  1  0  0  0  0
 32  8  1  0  0  0  0
  9  8  1  0  0  0  0
 33  9  1  0  0  0  0
 34  9  1  0  0  0  0
 12 11  2  0  0  0  0
 13 11  1  0  0  0  0
 35 13  1  0  0  0  0
 36 13  1  0  0  0  0
 14 13  1  0  0  0  0
 15 14  1  0  0  0  0
 21 15  2  0  0  0  0
 16 15  1  0  0  0  0
 17 16  1  0  0  0  0
 37 17  1  0  0  0  0
 38 17  1  0  0  0  0
 39 17  1  0  0  0  0
 18 14  2  0  0  0  0
 40 18  1  0  0  0  0
 19 18  1  0  0  0  0
 41 19  1  0  0  0  0
 20 19  2  0  0  0  0
 42 20  1  0  0  0  0
 43 21  1  0  0  0  0
 10  9  1  0  0  0  0
 21 20  1  0  0  0  0
M  END
>  <FittedScore>
-32.63

$$$$
