A71EV2A-x4402a_best-RMSD
  FITTED

 38 39     0  0  0  0  0  0  0999 V2000
    7.3744   13.1958   22.6685 O    0  0  0  0  0  0  0  0  0  0  0  0
    8.1059   13.7637   23.4706 C    0  0  0  0  0  0  0  0  0  0  0  0
    8.7639   14.9372   23.1450 N    0  0  0  0  0  0  0  0  0  0  0  0
    8.7591   15.5363   21.7725 C    0  0  0  0  0  0  0  0  0  0  0  0
   10.1562   15.5654   21.0848 C    0  0  0  0  0  0  0  0  0  0  0  0
   10.0612   15.7985   19.5823 C    0  0  0  0  0  0  0  0  0  0  0  0
    9.5704   16.8009   19.0975 O    0  0  0  0  0  0  0  0  0  0  0  0
   10.4970   14.7919   18.8047 N    0  0  0  0  0  0  0  0  0  0  0  0
    9.6111   15.7054   24.1125 C    0  0  0  0  0  0  0  0  0  0  0  0
    9.2092   15.4585   25.5780 C    0  0  0  0  0  0  0  0  0  0  0  0
    9.0488   13.9419   25.8225 C    0  0  0  0  0  0  0  0  0  0  0  0
    8.3461   13.2136   24.7196 N    0  0  0  0  0  0  0  0  0  0  0  0
    8.0437   11.8277   24.9713 C    0  0  0  0  0  0  0  0  0  0  0  0
    7.0378   11.4559   25.8772 C    0  0  0  0  0  0  0  0  0  0  0  0
    6.7071   10.1019   26.0348 C    0  0  0  0  0  0  0  0  0  0  0  0
    7.3664    9.1285   25.2737 C    0  0  0  0  0  0  0  0  0  0  0  0
    8.7457   10.8380   24.2553 C    0  0  0  0  0  0  0  0  0  0  0  0
    8.4046    9.4848   24.3912 C    0  0  0  0  0  0  0  0  0  0  0  0
    9.1403    8.4277   23.5773 C    0  0  0  0  0  0  0  0  0  0  0  0
    8.3648   16.5551   21.8304 H    0  0  0  0  0  0  0  0  0  0  0  0
    8.0631   15.0193   21.1055 H    0  0  0  0  0  0  0  0  0  0  0  0
   10.6874   14.6310   21.3042 H    0  0  0  0  0  0  0  0  0  0  0  0
   10.7616   16.3697   21.5119 H    0  0  0  0  0  0  0  0  0  0  0  0
   10.5218   14.9137   17.8036 H    0  0  0  0  0  0  0  0  0  0  0  0
   10.7521   13.8963   19.2161 H    0  0  0  0  0  0  0  0  0  0  0  0
   10.6587   15.4201   23.9794 H    0  0  0  0  0  0  0  0  0  0  0  0
    9.5488   16.7812   23.9230 H    0  0  0  0  0  0  0  0  0  0  0  0
    9.9610   15.8730   26.2546 H    0  0  0  0  0  0  0  0  0  0  0  0
    8.2631   15.9661   25.7908 H    0  0  0  0  0  0  0  0  0  0  0  0
   10.0351   13.4917   25.9778 H    0  0  0  0  0  0  0  0  0  0  0  0
    8.4991   13.8114   26.7595 H    0  0  0  0  0  0  0  0  0  0  0  0
    6.5050   12.2101   26.4521 H    0  0  0  0  0  0  0  0  0  0  0  0
    5.9313    9.8124   26.7379 H    0  0  0  0  0  0  0  0  0  0  0  0
    7.0856    8.0830   25.3940 H    0  0  0  0  0  0  0  0  0  0  0  0
    9.5491   11.1255   23.5798 H    0  0  0  0  0  0  0  0  0  0  0  0
   10.1713    8.7299   23.3697 H    0  0  0  0  0  0  0  0  0  0  0  0
    8.6323    8.2641   22.6233 H    0  0  0  0  0  0  0  0  0  0  0  0
    9.1821    7.4748   24.1126 H    0  0  0  0  0  0  0  0  0  0  0  0
  2  1  2  0  0  0  0
  3  2  1  0  0  0  0
  4  3  1  0  0  0  0
 20  4  1  0  0  0  0
 21  4  1  0  0  0  0
  5  4  1  0  0  0  0
 22  5  1  0  0  0  0
 23  5  1  0  0  0  0
  6  5  1  0  0  0  0
  7  6  2  0  0  0  0
  8  6  1  0  0  0  0
 24  8  1  0  0  0  0
 25  8  1  0  0  0  0
  9  3  1  0  0  0  0
 26  9  1  0  0  0  0
 27  9  1  0  0  0  0
 10  9  1  0  0  0  0
 28 10  1  0  0  0  0
 29 10  1  0  0  0  0
 11 10  1  0  0  0  0
 30 11  1  0  0  0  0
 31 11  1  0  0  0  0
 12 11  1  0  0  0  0
 13 12  1  0  0  0  0
 14 13  1  0  0  0  0
 32 14  1  0  0  0  0
 15 14  2  0  0  0  0
 33 15  1  0  0  0  0
 16 15  1  0  0  0  0
 34 16  1  0  0  0  0
 17 13  2  0  0  0  0
 35 17  1  0  0  0  0
 18 16  2  0  0  0  0
 19 18  1  0  0  0  0
 36 19  1  0  0  0  0
 37 19  1  0  0  0  0
 38 19  1  0  0  0  0
 12  2  1  0  0  0  0
 18 17  1  0  0  0  0
M  END
>  <FittedScore>
-33.32

$$$$
