A71EV2A-x4406a_lowest-energy
  FITTED

 41 42     0  0  0  0  0  0  0999 V2000
   11.3186   14.1517   25.0210 O    0  0  0  0  0  0  0  0  0  0  0  0
   11.0218   14.5257   23.8996 C    0  0  0  0  0  0  0  0  0  0  0  0
   11.9091   15.5842   23.2404 C    0  0  0  0  0  0  0  0  0  0  0  0
   11.4823   16.1309   21.8572 C    0  0  0  0  0  0  0  0  0  0  0  0
   10.8216   15.0274   21.0194 C    0  0  0  0  0  0  0  0  0  0  0  0
   10.4633   15.4709   19.6009 C    0  0  0  0  0  0  0  0  0  0  0  0
    9.5422   16.2120   19.3095 O    0  0  0  0  0  0  0  0  0  0  0  0
   11.2785   14.9993   18.6402 N    0  0  0  0  0  0  0  0  0  0  0  0
    9.6102   14.4750   21.8131 C    0  0  0  0  0  0  0  0  0  0  0  0
   10.0207   13.9434   23.1562 N    0  0  0  0  0  0  0  0  0  0  0  0
    9.2936   12.7072   23.5741 C    0  0  0  0  0  0  0  0  0  0  0  0
    7.8040   12.9387   23.9510 C    0  0  0  0  0  0  0  0  0  0  0  0
    7.0043   12.9969   22.7697 O    0  0  0  0  0  0  0  0  0  0  0  0
    7.1905   11.9397   24.9365 C    0  0  0  0  0  0  0  0  0  0  0  0
    7.2047   10.5353   24.7277 C    0  0  0  0  0  0  0  0  0  0  0  0
    7.7946    9.9674   23.6144 O    0  0  0  0  0  0  0  0  0  0  0  0
    8.9669    9.1156   23.6614 C    0  0  0  0  0  0  0  0  0  0  0  0
    6.5144   12.4509   26.0652 C    0  0  0  0  0  0  0  0  0  0  0  0
    5.8731   11.5945   26.9640 C    0  0  0  0  0  0  0  0  0  0  0  0
    5.8767   10.2155   26.7372 C    0  0  0  0  0  0  0  0  0  0  0  0
    6.5306    9.6944   25.6165 C    0  0  0  0  0  0  0  0  0  0  0  0
   12.0095   16.4264   23.9310 H    0  0  0  0  0  0  0  0  0  0  0  0
   12.9111   15.1540   23.1429 H    0  0  0  0  0  0  0  0  0  0  0  0
   10.7895   16.9676   21.9872 H    0  0  0  0  0  0  0  0  0  0  0  0
   12.3598   16.5227   21.3378 H    0  0  0  0  0  0  0  0  0  0  0  0
   11.5410   14.1975   20.9477 H    0  0  0  0  0  0  0  0  0  0  0  0
   11.0276   15.1229   17.6693 H    0  0  0  0  0  0  0  0  0  0  0  0
   12.1028   14.4547   18.8755 H    0  0  0  0  0  0  0  0  0  0  0  0
    8.8518   15.2537   21.9463 H    0  0  0  0  0  0  0  0  0  0  0  0
    9.1463   13.6999   21.1962 H    0  0  0  0  0  0  0  0  0  0  0  0
    9.3714   11.9718   22.7702 H    0  0  0  0  0  0  0  0  0  0  0  0
    9.7913   12.2343   24.4225 H    0  0  0  0  0  0  0  0  0  0  0  0
    7.7557   13.9392   24.3902 H    0  0  0  0  0  0  0  0  0  0  0  0
    6.3998   13.7587   22.8671 H    0  0  0  0  0  0  0  0  0  0  0  0
    8.7473    8.2030   24.2176 H    0  0  0  0  0  0  0  0  0  0  0  0
    9.7947    9.6404   24.1435 H    0  0  0  0  0  0  0  0  0  0  0  0
    9.2631    8.8391   22.6458 H    0  0  0  0  0  0  0  0  0  0  0  0
    6.4727   13.5197   26.2513 H    0  0  0  0  0  0  0  0  0  0  0  0
    5.3608   11.9974   27.8273 H    0  0  0  0  0  0  0  0  0  0  0  0
    5.3603    9.5458   27.4198 H    0  0  0  0  0  0  0  0  0  0  0  0
    6.5139    8.6195   25.4392 H    0  0  0  0  0  0  0  0  0  0  0  0
 10 11  1  0  0  0  0
  9 10  1  0  0  0  0
  5  9  1  0  0  0  0
  6  5  1  0  0  0  0
  4  5  1  0  0  0  0
  3  4  1  0  0  0  0
  2  3  1  0  0  0  0
  1  2  2  0  0  0  0
 22  3  1  0  0  0  0
 23  3  1  0  0  0  0
 24  4  1  0  0  0  0
 25  4  1  0  0  0  0
 26  5  1  0  0  0  0
  7  6  2  0  0  0  0
  8  6  1  0  0  0  0
 27  8  1  0  0  0  0
 28  8  1  0  0  0  0
 29  9  1  0  0  0  0
 30  9  1  0  0  0  0
 31 11  1  0  0  0  0
 32 11  1  0  0  0  0
 12 11  1  0  0  0  0
 13 12  1  0  0  0  0
 33 12  1  0  0  0  0
 34 13  1  0  0  0  0
 14 12  1  0  0  0  0
 15 14  1  0  0  0  0
 21 15  2  0  0  0  0
 16 15  1  0  0  0  0
 17 16  1  0  0  0  0
 35 17  1  0  0  0  0
 36 17  1  0  0  0  0
 37 17  1  0  0  0  0
 18 14  2  0  0  0  0
 38 18  1  0  0  0  0
 19 18  1  0  0  0  0
 39 19  1  0  0  0  0
 20 19  2  0  0  0  0
 40 20  1  0  0  0  0
 41 21  1  0  0  0  0
 10  2  1  0  0  0  0
 21 20  1  0  0  0  0
M  END
>  <FittedScore>
-37.43

$$$$
