A71EV2A-x4406a_best-RMSD
  FITTED

 41 42     0  0  0  0  0  0  0999 V2000
   11.0236   14.1727   25.0299 O    0  0  0  0  0  0  0  0  0  0  0  0
   10.8188   14.5288   23.8815 C    0  0  0  0  0  0  0  0  0  0  0  0
   11.7789   15.5583   23.2703 C    0  0  0  0  0  0  0  0  0  0  0  0
   11.4402   16.1037   21.8574 C    0  0  0  0  0  0  0  0  0  0  0  0
   10.7811   15.0205   20.9886 C    0  0  0  0  0  0  0  0  0  0  0  0
   10.4813   15.4817   19.5589 C    0  0  0  0  0  0  0  0  0  0  0  0
    9.5890   16.2480   19.2422 O    0  0  0  0  0  0  0  0  0  0  0  0
   11.2999   14.9750   18.6216 N    0  0  0  0  0  0  0  0  0  0  0  0
    9.5223   14.4947   21.7239 C    0  0  0  0  0  0  0  0  0  0  0  0
    9.8599   13.9500   23.0779 N    0  0  0  0  0  0  0  0  0  0  0  0
    9.1179   12.7075   23.4445 C    0  0  0  0  0  0  0  0  0  0  0  0
    7.6187   12.9415   23.8017 C    0  0  0  0  0  0  0  0  0  0  0  0
    6.8307   12.9860   22.6031 O    0  0  0  0  0  0  0  0  0  0  0  0
    7.0062   11.9634   24.8239 C    0  0  0  0  0  0  0  0  0  0  0  0
    7.1014   10.5524   24.6988 C    0  0  0  0  0  0  0  0  0  0  0  0
    7.7462    9.9727   23.6228 O    0  0  0  0  0  0  0  0  0  0  0  0
    8.9497    9.1760   23.7133 C    0  0  0  0  0  0  0  0  0  0  0  0
    6.2776   12.4939   25.9099 C    0  0  0  0  0  0  0  0  0  0  0  0
    5.6502   11.6547   26.8365 C    0  0  0  0  0  0  0  0  0  0  0  0
    5.7310   10.2667   26.6911 C    0  0  0  0  0  0  0  0  0  0  0  0
    6.4525    9.7218   25.6215 C    0  0  0  0  0  0  0  0  0  0  0  0
   11.8452   16.4123   23.9509 H    0  0  0  0  0  0  0  0  0  0  0  0
   12.7799   15.1197   23.2411 H    0  0  0  0  0  0  0  0  0  0  0  0
   10.7646   16.9604   21.9564 H    0  0  0  0  0  0  0  0  0  0  0  0
   12.3499   16.4744   21.3743 H    0  0  0  0  0  0  0  0  0  0  0  0
   11.4809   14.1720   20.9449 H    0  0  0  0  0  0  0  0  0  0  0  0
   12.0745   14.3697   18.8775 H    0  0  0  0  0  0  0  0  0  0  0  0
   11.0623   15.0678   17.6468 H    0  0  0  0  0  0  0  0  0  0  0  0
    8.7875   15.2964   21.8462 H    0  0  0  0  0  0  0  0  0  0  0  0
    9.0565   13.7414   21.0811 H    0  0  0  0  0  0  0  0  0  0  0  0
    9.2067   11.9913   22.6215 H    0  0  0  0  0  0  0  0  0  0  0  0
    9.6063   12.2069   24.2835 H    0  0  0  0  0  0  0  0  0  0  0  0
    7.5605   13.9541   24.2178 H    0  0  0  0  0  0  0  0  0  0  0  0
    6.2387   13.7646   22.6623 H    0  0  0  0  0  0  0  0  0  0  0  0
    8.7371    8.2410   24.2353 H    0  0  0  0  0  0  0  0  0  0  0  0
    9.7382    9.7208   24.2451 H    0  0  0  0  0  0  0  0  0  0  0  0
    9.3050    8.9457   22.7081 H    0  0  0  0  0  0  0  0  0  0  0  0
    6.1854   13.5699   26.0413 H    0  0  0  0  0  0  0  0  0  0  0  0
    5.0866   12.0815   27.6584 H    0  0  0  0  0  0  0  0  0  0  0  0
    5.2346    9.6085   27.4011 H    0  0  0  0  0  0  0  0  0  0  0  0
    6.5005    8.6399   25.5106 H    0  0  0  0  0  0  0  0  0  0  0  0
 10 11  1  0  0  0  0
  9 10  1  0  0  0  0
  5  9  1  0  0  0  0
  6  5  1  0  0  0  0
  4  5  1  0  0  0  0
  3  4  1  0  0  0  0
  2  3  1  0  0  0  0
  1  2  2  0  0  0  0
 22  3  1  0  0  0  0
 23  3  1  0  0  0  0
 24  4  1  0  0  0  0
 25  4  1  0  0  0  0
 26  5  1  0  0  0  0
  7  6  2  0  0  0  0
  8  6  1  0  0  0  0
 27  8  1  0  0  0  0
 28  8  1  0  0  0  0
 29  9  1  0  0  0  0
 30  9  1  0  0  0  0
 31 11  1  0  0  0  0
 32 11  1  0  0  0  0
 12 11  1  0  0  0  0
 13 12  1  0  0  0  0
 33 12  1  0  0  0  0
 34 13  1  0  0  0  0
 14 12  1  0  0  0  0
 15 14  1  0  0  0  0
 21 15  2  0  0  0  0
 16 15  1  0  0  0  0
 17 16  1  0  0  0  0
 35 17  1  0  0  0  0
 36 17  1  0  0  0  0
 37 17  1  0  0  0  0
 18 14  2  0  0  0  0
 38 18  1  0  0  0  0
 19 18  1  0  0  0  0
 39 19  1  0  0  0  0
 20 19  2  0  0  0  0
 40 20  1  0  0  0  0
 41 21  1  0  0  0  0
 10  2  1  0  0  0  0
 21 20  1  0  0  0  0
M  END
>  <FittedScore>
-37.20

$$$$
