A71EV2A-x5016a_best-RMSD
  FITTED

 39 40     0  0  0  0  0  0  0999 V2000
    9.7899   16.5184   19.4197 O    0  0  0  0  0  0  0  0  0  0  0  0
   10.3382   15.4915   19.7646 C    0  0  0  0  0  0  0  0  0  0  0  0
   10.8610   14.6530   18.8440 N    0  0  0  0  0  0  0  0  0  0  0  0
   10.3926   15.0198   21.2148 C    0  0  0  0  0  0  0  0  0  0  0  0
   11.4200   15.8561   22.0294 C    0  0  0  0  0  0  0  0  0  0  0  0
   11.4210   15.4266   23.5205 C    0  0  0  0  0  0  0  0  0  0  0  0
    9.9808   15.3955   24.1074 C    0  0  0  0  0  0  0  0  0  0  0  0
    8.9851   15.0299   21.8863 C    0  0  0  0  0  0  0  0  0  0  0  0
    9.0205   14.5501   23.3053 N    0  0  0  0  0  0  0  0  0  0  0  0
    8.2399   13.5122   23.7807 C    0  0  0  0  0  0  0  0  0  0  0  0
    7.3684   13.0084   23.0864 O    0  0  0  0  0  0  0  0  0  0  0  0
    8.4664   12.9958   25.2139 C    0  0  0  0  0  0  0  0  0  0  0  0
    7.7406   11.6891   25.5823 C    0  0  0  0  0  0  0  0  0  0  0  0
    8.1113   10.4079   25.0725 C    0  0  0  0  0  0  0  0  0  0  0  0
    9.2937   10.2520   24.1436 C    0  0  0  0  0  0  0  0  0  0  0  0
    9.5330    9.1368   23.4530 C    0  0  0  0  0  0  0  0  0  0  0  0
    6.6507   11.7731   26.4730 C    0  0  0  0  0  0  0  0  0  0  0  0
    5.9751   10.6123   26.8603 C    0  0  0  0  0  0  0  0  0  0  0  0
    6.3784    9.3888   26.3233 C    0  0  0  0  0  0  0  0  0  0  0  0
    7.4068    9.2890   25.4382 N    0  0  0  0  0  0  0  0  0  0  0  0
   11.1316   13.7040   19.1095 H    0  0  0  0  0  0  0  0  0  0  0  0
   10.7886   14.8923   17.8594 H    0  0  0  0  0  0  0  0  0  0  0  0
   10.7371   13.9800   21.2351 H    0  0  0  0  0  0  0  0  0  0  0  0
   12.4222   15.7243   21.6131 H    0  0  0  0  0  0  0  0  0  0  0  0
   11.1757   16.9209   21.9586 H    0  0  0  0  0  0  0  0  0  0  0  0
   11.8792   14.4361   23.6181 H    0  0  0  0  0  0  0  0  0  0  0  0
   12.0404   16.1183   24.0974 H    0  0  0  0  0  0  0  0  0  0  0  0
   10.0600   15.0982   25.1533 H    0  0  0  0  0  0  0  0  0  0  0  0
    9.5938   16.4190   24.1480 H    0  0  0  0  0  0  0  0  0  0  0  0
    8.3199   14.4317   21.2590 H    0  0  0  0  0  0  0  0  0  0  0  0
    8.5626   16.0401   21.8648 H    0  0  0  0  0  0  0  0  0  0  0  0
    9.5310   12.8458   25.4028 H    0  0  0  0  0  0  0  0  0  0  0  0
    8.1651   13.7883   25.9054 H    0  0  0  0  0  0  0  0  0  0  0  0
   10.0146   11.0517   23.9877 H    0  0  0  0  0  0  0  0  0  0  0  0
    8.9014    8.2551   23.5008 H    0  0  0  0  0  0  0  0  0  0  0  0
   10.4042    9.1047   22.8032 H    0  0  0  0  0  0  0  0  0  0  0  0
    6.3214   12.7307   26.8696 H    0  0  0  0  0  0  0  0  0  0  0  0
    5.1481   10.6640   27.5664 H    0  0  0  0  0  0  0  0  0  0  0  0
    5.8607    8.4827   26.6309 H    0  0  0  0  0  0  0  0  0  0  0  0
  9 10  1  0  0  0  0
  7  9  1  0  0  0  0
  6  7  1  0  0  0  0
  5  6  1  0  0  0  0
  4  5  1  0  0  0  0
  2  4  1  0  0  0  0
  1  2  2  0  0  0  0
  3  2  1  0  0  0  0
 21  3  1  0  0  0  0
 22  3  1  0  0  0  0
 23  4  1  0  0  0  0
 24  5  1  0  0  0  0
 25  5  1  0  0  0  0
 26  6  1  0  0  0  0
 27  6  1  0  0  0  0
 28  7  1  0  0  0  0
 29  7  1  0  0  0  0
  8  4  1  0  0  0  0
 30  8  1  0  0  0  0
 31  8  1  0  0  0  0
 11 10  2  0  0  0  0
 12 10  1  0  0  0  0
 32 12  1  0  0  0  0
 33 12  1  0  0  0  0
 13 12  1  0  0  0  0
 14 13  1  0  0  0  0
 20 14  2  0  0  0  0
 15 14  1  0  0  0  0
 34 15  1  0  0  0  0
 16 15  2  0  0  0  0
 35 16  1  0  0  0  0
 36 16  1  0  0  0  0
 17 13  2  0  0  0  0
 37 17  1  0  0  0  0
 18 17  1  0  0  0  0
 38 18  1  0  0  0  0
 19 18  2  0  0  0  0
 39 19  1  0  0  0  0
  9  8  1  0  0  0  0
 20 19  1  0  0  0  0
M  END
>  <FittedScore>
-33.82

$$$$
