A71EV2A-x5016a_lowest-energy
  FITTED

 39 40     0  0  0  0  0  0  0999 V2000
    9.8908   16.5758   19.4215 O    0  0  0  0  0  0  0  0  0  0  0  0
   10.4309   15.5455   19.7557 C    0  0  0  0  0  0  0  0  0  0  0  0
   10.9128   14.7012   18.8212 N    0  0  0  0  0  0  0  0  0  0  0  0
   10.4828   15.0639   21.2026 C    0  0  0  0  0  0  0  0  0  0  0  0
   11.4547   15.9410   22.0439 C    0  0  0  0  0  0  0  0  0  0  0  0
   11.4633   15.4752   23.5232 C    0  0  0  0  0  0  0  0  0  0  0  0
   10.0238   15.3632   24.0990 C    0  0  0  0  0  0  0  0  0  0  0  0
    9.0630   15.0038   21.8554 C    0  0  0  0  0  0  0  0  0  0  0  0
    9.0936   14.5132   23.2749 N    0  0  0  0  0  0  0  0  0  0  0  0
    8.3027   13.4792   23.7448 C    0  0  0  0  0  0  0  0  0  0  0  0
    7.4164   12.9908   23.0557 O    0  0  0  0  0  0  0  0  0  0  0  0
    8.5652   12.9366   25.1647 C    0  0  0  0  0  0  0  0  0  0  0  0
    7.7912   11.6655   25.5501 C    0  0  0  0  0  0  0  0  0  0  0  0
    8.0897   10.3705   25.0332 C    0  0  0  0  0  0  0  0  0  0  0  0
    9.2359   10.1548   24.0670 C    0  0  0  0  0  0  0  0  0  0  0  0
    9.5239    8.9709   23.5298 C    0  0  0  0  0  0  0  0  0  0  0  0
    6.7283   11.7989   26.4707 C    0  0  0  0  0  0  0  0  0  0  0  0
    5.9889   10.6731   26.8525 C    0  0  0  0  0  0  0  0  0  0  0  0
    6.3130    9.4364   26.2905 C    0  0  0  0  0  0  0  0  0  0  0  0
    7.3326    9.2905   25.4057 N    0  0  0  0  0  0  0  0  0  0  0  0
   10.7902   14.9332   17.8408 H    0  0  0  0  0  0  0  0  0  0  0  0
   11.2274   13.7696   19.0900 H    0  0  0  0  0  0  0  0  0  0  0  0
   10.8799   14.0418   21.2175 H    0  0  0  0  0  0  0  0  0  0  0  0
   12.4658   15.8714   21.6340 H    0  0  0  0  0  0  0  0  0  0  0  0
   11.1642   16.9964   21.9921 H    0  0  0  0  0  0  0  0  0  0  0  0
   11.9642   14.5040   23.5961 H    0  0  0  0  0  0  0  0  0  0  0  0
   12.0443   16.1786   24.1232 H    0  0  0  0  0  0  0  0  0  0  0  0
   10.1232   15.0331   25.1318 H    0  0  0  0  0  0  0  0  0  0  0  0
    9.5932   16.3677   24.1772 H    0  0  0  0  0  0  0  0  0  0  0  0
    8.4334   14.3788   21.2182 H    0  0  0  0  0  0  0  0  0  0  0  0
    8.5946   15.9952   21.8415 H    0  0  0  0  0  0  0  0  0  0  0  0
    9.6343   12.7389   25.2940 H    0  0  0  0  0  0  0  0  0  0  0  0
    8.3341   13.7268   25.8848 H    0  0  0  0  0  0  0  0  0  0  0  0
    9.8885   10.9648   23.7569 H    0  0  0  0  0  0  0  0  0  0  0  0
    8.9622    8.0650   23.7360 H    0  0  0  0  0  0  0  0  0  0  0  0
   10.3645    8.8924   22.8446 H    0  0  0  0  0  0  0  0  0  0  0  0
    6.4684   12.7664   26.8930 H    0  0  0  0  0  0  0  0  0  0  0  0
    5.1771   10.7602   27.5686 H    0  0  0  0  0  0  0  0  0  0  0  0
    5.7377    8.5582   26.5774 H    0  0  0  0  0  0  0  0  0  0  0  0
  9 10  1  0  0  0  0
  7  9  1  0  0  0  0
  6  7  1  0  0  0  0
  5  6  1  0  0  0  0
  4  5  1  0  0  0  0
  2  4  1  0  0  0  0
  1  2  2  0  0  0  0
  3  2  1  0  0  0  0
 21  3  1  0  0  0  0
 22  3  1  0  0  0  0
 23  4  1  0  0  0  0
 24  5  1  0  0  0  0
 25  5  1  0  0  0  0
 26  6  1  0  0  0  0
 27  6  1  0  0  0  0
 28  7  1  0  0  0  0
 29  7  1  0  0  0  0
  8  4  1  0  0  0  0
 30  8  1  0  0  0  0
 31  8  1  0  0  0  0
 11 10  2  0  0  0  0
 12 10  1  0  0  0  0
 32 12  1  0  0  0  0
 33 12  1  0  0  0  0
 13 12  1  0  0  0  0
 14 13  1  0  0  0  0
 20 14  2  0  0  0  0
 15 14  1  0  0  0  0
 34 15  1  0  0  0  0
 16 15  2  0  0  0  0
 35 16  1  0  0  0  0
 36 16  1  0  0  0  0
 17 13  2  0  0  0  0
 37 17  1  0  0  0  0
 18 17  1  0  0  0  0
 38 18  1  0  0  0  0
 19 18  2  0  0  0  0
 39 19  1  0  0  0  0
  9  8  1  0  0  0  0
 20 19  1  0  0  0  0
M  END
>  <FittedScore>
-33.28

$$$$
