A71EV2A-x5222a_lowest-energy
  FITTED

 44 46     0  0  0  0  0  0  0999 V2000
   10.6570   14.8428   25.1656 O    0  0  0  0  0  0  0  0  0  0  0  0
   10.6780   15.0463   23.9690 C    0  0  0  0  0  0  0  0  0  0  0  0
   11.7763   15.9565   23.3960 C    0  0  0  0  0  0  0  0  0  0  0  0
   11.5414   16.4620   21.9518 C    0  0  0  0  0  0  0  0  0  0  0  0
   10.9665   15.3278   21.0758 C    0  0  0  0  0  0  0  0  0  0  0  0
   10.7345   15.7619   19.6410 C    0  0  0  0  0  0  0  0  0  0  0  0
   10.0470   16.7173   19.3273 O    0  0  0  0  0  0  0  0  0  0  0  0
   11.0017   14.7922   18.7528 N    0  0  0  0  0  0  0  0  0  0  0  0
    9.6540   14.7813   21.6892 C    0  0  0  0  0  0  0  0  0  0  0  0
    9.7912   14.4173   23.1206 N    0  0  0  0  0  0  0  0  0  0  0  0
    8.7842   13.4096   23.5724 C    0  0  0  0  0  0  0  0  0  0  0  0
    9.4370   12.1048   24.1074 C    0  0  0  0  0  0  0  0  0  0  0  0
    8.4434   11.0537   24.5720 C    0  0  0  0  0  0  0  0  0  0  0  0
    8.3727    9.7624   24.2357 C    0  0  0  0  0  0  0  0  0  0  0  0
    9.2844    8.9984   23.2953 C    0  0  0  0  0  0  0  0  0  0  0  0
    7.3684   11.2257   25.5923 C    0  0  0  0  0  0  0  0  0  0  0  0
    6.7655    9.9905   25.7541 C    0  0  0  0  0  0  0  0  0  0  0  0
    7.3646    9.1359   24.8957 N    0  0  0  0  0  0  0  0  0  0  0  0
    6.9891   12.3087   26.4051 C    0  0  0  0  0  0  0  0  0  0  0  0
    5.9834   12.1085   27.3655 C    0  0  0  0  0  0  0  0  0  0  0  0
    5.3811   10.8418   27.5246 C    0  0  0  0  0  0  0  0  0  0  0  0
    5.7633    9.7630   26.7005 C    0  0  0  0  0  0  0  0  0  0  0  0
    4.4115   10.6683   28.5777 C    0  0  0  0  0  0  0  0  0  0  0  0
    3.6636   10.5473   29.4245 N    0  0  0  0  0  0  0  0  0  0  0  0
   11.8929   16.8275   24.0457 H    0  0  0  0  0  0  0  0  0  0  0  0
   12.7302   15.4230   23.4279 H    0  0  0  0  0  0  0  0  0  0  0  0
   10.8607   17.3185   21.9683 H    0  0  0  0  0  0  0  0  0  0  0  0
   12.4839   16.8155   21.5281 H    0  0  0  0  0  0  0  0  0  0  0  0
   11.7056   14.5135   21.0907 H    0  0  0  0  0  0  0  0  0  0  0  0
   10.8829   14.9640   17.7651 H    0  0  0  0  0  0  0  0  0  0  0  0
   11.2138   13.8439   19.0728 H    0  0  0  0  0  0  0  0  0  0  0  0
    8.8536   15.5223   21.5965 H    0  0  0  0  0  0  0  0  0  0  0  0
    9.3568   13.9118   21.0919 H    0  0  0  0  0  0  0  0  0  0  0  0
    8.1820   13.8878   24.3393 H    0  0  0  0  0  0  0  0  0  0  0  0
    8.0647   13.1392   22.7923 H    0  0  0  0  0  0  0  0  0  0  0  0
   10.0972   11.7081   23.3322 H    0  0  0  0  0  0  0  0  0  0  0  0
   10.0795   12.3187   24.9627 H    0  0  0  0  0  0  0  0  0  0  0  0
   10.3125    9.0060   23.6672 H    0  0  0  0  0  0  0  0  0  0  0  0
    9.2729    9.4424   22.2957 H    0  0  0  0  0  0  0  0  0  0  0  0
    8.9793    7.9522   23.1970 H    0  0  0  0  0  0  0  0  0  0  0  0
    7.0612    8.1674   24.7815 H    0  0  0  0  0  0  0  0  0  0  0  0
    7.4822   13.2731   26.3455 H    0  0  0  0  0  0  0  0  0  0  0  0
    5.6892   12.9336   28.0112 H    0  0  0  0  0  0  0  0  0  0  0  0
    5.3209    8.7740   26.8125 H    0  0  0  0  0  0  0  0  0  0  0  0
 10 11  1  0  0  0  0
  9 10  1  0  0  0  0
  5  9  1  0  0  0  0
  6  5  1  0  0  0  0
  4  5  1  0  0  0  0
  3  4  1  0  0  0  0
  2  3  1  0  0  0  0
  1  2  2  0  0  0  0
 25  3  1  0  0  0  0
 26  3  1  0  0  0  0
 27  4  1  0  0  0  0
 28  4  1  0  0  0  0
 29  5  1  0  0  0  0
  7  6  2  0  0  0  0
  8  6  1  0  0  0  0
 30  8  1  0  0  0  0
 31  8  1  0  0  0  0
 32  9  1  0  0  0  0
 33  9  1  0  0  0  0
 34 11  1  0  0  0  0
 35 11  1  0  0  0  0
 12 11  1  0  0  0  0
 36 12  1  0  0  0  0
 37 12  1  0  0  0  0
 13 12  1  0  0  0  0
 14 13  2  0  0  0  0
 18 14  1  0  0  0  0
 15 14  1  0  0  0  0
 38 15  1  0  0  0  0
 39 15  1  0  0  0  0
 40 15  1  0  0  0  0
 16 13  1  0  0  0  0
 17 16  1  0  0  0  0
 22 17  2  0  0  0  0
 41 18  1  0  0  0  0
 19 16  2  0  0  0  0
 42 19  1  0  0  0  0
 20 19  1  0  0  0  0
 43 20  1  0  0  0  0
 21 20  2  0  0  0  0
 44 22  1  0  0  0  0
 23 21  1  0  0  0  0
 24 23  3  0  0  0  0
 10  2  1  0  0  0  0
 18 17  1  0  0  0  0
 22 21  1  0  0  0  0
M  END
>  <FittedScore>
-39.06

$$$$
