A71EV2A-x5222a_best-RMSD
  FITTED

 44 46     0  0  0  0  0  0  0999 V2000
   10.6945   14.9462   25.1930 O    0  0  0  0  0  0  0  0  0  0  0  0
   10.6904   15.1063   23.9903 C    0  0  0  0  0  0  0  0  0  0  0  0
   11.8440   15.8958   23.3680 C    0  0  0  0  0  0  0  0  0  0  0  0
   11.5842   16.4143   21.9326 C    0  0  0  0  0  0  0  0  0  0  0  0
   10.9333   15.2972   21.0789 C    0  0  0  0  0  0  0  0  0  0  0  0
   10.6928   15.7319   19.6397 C    0  0  0  0  0  0  0  0  0  0  0  0
   10.0135   16.6945   19.3293 O    0  0  0  0  0  0  0  0  0  0  0  0
   10.9718   14.7802   18.7324 N    0  0  0  0  0  0  0  0  0  0  0  0
    9.6168   14.7998   21.7365 C    0  0  0  0  0  0  0  0  0  0  0  0
    9.7517   14.4988   23.1873 N    0  0  0  0  0  0  0  0  0  0  0  0
    8.7356   13.5279   23.7012 C    0  0  0  0  0  0  0  0  0  0  0  0
    9.3825   12.2013   24.1941 C    0  0  0  0  0  0  0  0  0  0  0  0
    8.3966   11.1191   24.6107 C    0  0  0  0  0  0  0  0  0  0  0  0
    8.3487    9.8315   24.2559 C    0  0  0  0  0  0  0  0  0  0  0  0
    9.2789    9.1042   23.3007 C    0  0  0  0  0  0  0  0  0  0  0  0
    7.3063   11.2562   25.6151 C    0  0  0  0  0  0  0  0  0  0  0  0
    6.7129   10.0117   25.7536 C    0  0  0  0  0  0  0  0  0  0  0  0
    7.3442    9.1735   24.8982 N    0  0  0  0  0  0  0  0  0  0  0  0
    6.8964   12.3333   26.4129 C    0  0  0  0  0  0  0  0  0  0  0  0
    5.8698   12.1216   27.3493 C    0  0  0  0  0  0  0  0  0  0  0  0
    5.2800   10.8453   27.4986 C    0  0  0  0  0  0  0  0  0  0  0  0
    5.6805    9.7768   26.6729 C    0  0  0  0  0  0  0  0  0  0  0  0
    4.3224   10.6348   28.5573 C    0  0  0  0  0  0  0  0  0  0  0  0
    3.5968   10.4628   29.4166 N    0  0  0  0  0  0  0  0  0  0  0  0
   12.0928   16.7494   24.0054 H    0  0  0  0  0  0  0  0  0  0  0  0
   12.7344   15.2573   23.3556 H    0  0  0  0  0  0  0  0  0  0  0  0
   10.9383   17.2946   21.9759 H    0  0  0  0  0  0  0  0  0  0  0  0
   12.5308   16.7308   21.4842 H    0  0  0  0  0  0  0  0  0  0  0  0
   11.6388   14.4538   21.0856 H    0  0  0  0  0  0  0  0  0  0  0  0
   11.1773   13.8227   19.0255 H    0  0  0  0  0  0  0  0  0  0  0  0
   10.8879   14.9810   17.7432 H    0  0  0  0  0  0  0  0  0  0  0  0
    8.8295   15.5526   21.6176 H    0  0  0  0  0  0  0  0  0  0  0  0
    9.2954   13.9083   21.1866 H    0  0  0  0  0  0  0  0  0  0  0  0
    8.2101   14.0401   24.4988 H    0  0  0  0  0  0  0  0  0  0  0  0
    7.9609   13.3003   22.9622 H    0  0  0  0  0  0  0  0  0  0  0  0
   10.0457   11.8445   23.4031 H    0  0  0  0  0  0  0  0  0  0  0  0
   10.0247   12.3906   25.0562 H    0  0  0  0  0  0  0  0  0  0  0  0
    8.8056    8.2193   22.8742 H    0  0  0  0  0  0  0  0  0  0  0  0
   10.1855    8.7805   23.8232 H    0  0  0  0  0  0  0  0  0  0  0  0
    9.5694    9.7323   22.4536 H    0  0  0  0  0  0  0  0  0  0  0  0
    7.1063    8.1798   24.8069 H    0  0  0  0  0  0  0  0  0  0  0  0
    7.3721   13.3049   26.3583 H    0  0  0  0  0  0  0  0  0  0  0  0
    5.5520   12.9492   27.9799 H    0  0  0  0  0  0  0  0  0  0  0  0
    5.2214    8.7951   26.7640 H    0  0  0  0  0  0  0  0  0  0  0  0
 10 11  1  0  0  0  0
  9 10  1  0  0  0  0
  5  9  1  0  0  0  0
  6  5  1  0  0  0  0
  4  5  1  0  0  0  0
  3  4  1  0  0  0  0
  2  3  1  0  0  0  0
  1  2  2  0  0  0  0
 25  3  1  0  0  0  0
 26  3  1  0  0  0  0
 27  4  1  0  0  0  0
 28  4  1  0  0  0  0
 29  5  1  0  0  0  0
  7  6  2  0  0  0  0
  8  6  1  0  0  0  0
 30  8  1  0  0  0  0
 31  8  1  0  0  0  0
 32  9  1  0  0  0  0
 33  9  1  0  0  0  0
 34 11  1  0  0  0  0
 35 11  1  0  0  0  0
 12 11  1  0  0  0  0
 36 12  1  0  0  0  0
 37 12  1  0  0  0  0
 13 12  1  0  0  0  0
 14 13  2  0  0  0  0
 18 14  1  0  0  0  0
 15 14  1  0  0  0  0
 38 15  1  0  0  0  0
 39 15  1  0  0  0  0
 40 15  1  0  0  0  0
 16 13  1  0  0  0  0
 17 16  1  0  0  0  0
 22 17  2  0  0  0  0
 41 18  1  0  0  0  0
 19 16  2  0  0  0  0
 42 19  1  0  0  0  0
 20 19  1  0  0  0  0
 43 20  1  0  0  0  0
 21 20  2  0  0  0  0
 44 22  1  0  0  0  0
 23 21  1  0  0  0  0
 24 23  3  0  0  0  0
 10  2  1  0  0  0  0
 18 17  1  0  0  0  0
 22 21  1  0  0  0  0
M  END
>  <FittedScore>
-38.22

$$$$
