A71EV2A-x4689a_lowest-energy
  FITTED

 39 40     0  0  0  0  0  0  0999 V2000
    9.9384   16.6527   19.1329 O    0  0  0  0  0  0  0  0  0  0  0  0
   10.4227   15.6248   19.5617 C    0  0  0  0  0  0  0  0  0  0  0  0
   10.8720   14.6933   18.7044 N    0  0  0  0  0  0  0  0  0  0  0  0
   10.4563   15.2263   21.0403 C    0  0  0  0  0  0  0  0  0  0  0  0
   11.2619   16.2550   21.8777 C    0  0  0  0  0  0  0  0  0  0  0  0
   11.2900   15.8194   23.3617 C    0  0  0  0  0  0  0  0  0  0  0  0
    9.8662   15.5248   23.9053 C    0  0  0  0  0  0  0  0  0  0  0  0
    9.0272   14.9888   21.6332 C    0  0  0  0  0  0  0  0  0  0  0  0
    9.0374   14.5686   23.0773 N    0  0  0  0  0  0  0  0  0  0  0  0
    8.2222   13.5678   23.5801 C    0  0  0  0  0  0  0  0  0  0  0  0
    7.3682   13.0304   22.8885 O    0  0  0  0  0  0  0  0  0  0  0  0
    8.3930   13.1567   25.0581 C    0  0  0  0  0  0  0  0  0  0  0  0
    7.5816   11.9434   25.5335 C    0  0  0  0  0  0  0  0  0  0  0  0
    7.9031   10.6059   25.1769 C    0  0  0  0  0  0  0  0  0  0  0  0
    9.3213   10.2707   24.1286 S    0  0  0  0  0  0  0  0  0  0  0  0
    9.3203    8.5134   23.6875 C    0  0  0  0  0  0  0  0  0  0  0  0
    6.4869   12.1613   26.3942 C    0  0  0  0  0  0  0  0  0  0  0  0
    5.7457   11.0698   26.8664 C    0  0  0  0  0  0  0  0  0  0  0  0
    6.0355    9.7910   26.5142 N    0  0  0  0  0  0  0  0  0  0  0  0
    7.0851    9.5693   25.6798 C    0  0  0  0  0  0  0  0  0  0  0  0
   10.8271   14.8755   17.7093 H    0  0  0  0  0  0  0  0  0  0  0  0
   11.1520   13.7695   19.0358 H    0  0  0  0  0  0  0  0  0  0  0  0
   10.9861   14.2689   21.1419 H    0  0  0  0  0  0  0  0  0  0  0  0
   12.2850   16.3329   21.4979 H    0  0  0  0  0  0  0  0  0  0  0  0
   10.8156   17.2505   21.7973 H    0  0  0  0  0  0  0  0  0  0  0  0
   11.9168   14.9309   23.4729 H    0  0  0  0  0  0  0  0  0  0  0  0
   11.7495   16.6074   23.9598 H    0  0  0  0  0  0  0  0  0  0  0  0
   10.0239   15.1858   24.9269 H    0  0  0  0  0  0  0  0  0  0  0  0
    9.3127   16.4631   23.9968 H    0  0  0  0  0  0  0  0  0  0  0  0
    8.5403   14.2389   21.0016 H    0  0  0  0  0  0  0  0  0  0  0  0
    8.4228   15.8962   21.5314 H    0  0  0  0  0  0  0  0  0  0  0  0
    9.4467   12.9525   25.2692 H    0  0  0  0  0  0  0  0  0  0  0  0
    8.1397   14.0153   25.6855 H    0  0  0  0  0  0  0  0  0  0  0  0
    9.4367    7.9131   24.5916 H    0  0  0  0  0  0  0  0  0  0  0  0
   10.1598    8.3055   23.0224 H    0  0  0  0  0  0  0  0  0  0  0  0
    8.3868    8.2530   23.1841 H    0  0  0  0  0  0  0  0  0  0  0  0
    6.2076   13.1664   26.7025 H    0  0  0  0  0  0  0  0  0  0  0  0
    4.9094   11.2529   27.5349 H    0  0  0  0  0  0  0  0  0  0  0  0
    7.2761    8.5376   25.4151 H    0  0  0  0  0  0  0  0  0  0  0  0
  9 10  1  0  0  0  0
  7  9  1  0  0  0  0
  6  7  1  0  0  0  0
  5  6  1  0  0  0  0
  4  5  1  0  0  0  0
  2  4  1  0  0  0  0
  1  2  2  0  0  0  0
  3  2  1  0  0  0  0
 21  3  1  0  0  0  0
 22  3  1  0  0  0  0
 23  4  1  0  0  0  0
 24  5  1  0  0  0  0
 25  5  1  0  0  0  0
 26  6  1  0  0  0  0
 27  6  1  0  0  0  0
 28  7  1  0  0  0  0
 29  7  1  0  0  0  0
  8  4  1  0  0  0  0
 30  8  1  0  0  0  0
 31  8  1  0  0  0  0
 11 10  2  0  0  0  0
 12 10  1  0  0  0  0
 32 12  1  0  0  0  0
 33 12  1  0  0  0  0
 13 12  1  0  0  0  0
 14 13  1  0  0  0  0
 20 14  2  0  0  0  0
 15 14  1  0  0  0  0
 16 15  1  0  0  0  0
 34 16  1  0  0  0  0
 35 16  1  0  0  0  0
 36 16  1  0  0  0  0
 17 13  2  0  0  0  0
 37 17  1  0  0  0  0
 18 17  1  0  0  0  0
 38 18  1  0  0  0  0
 19 18  2  0  0  0  0
 39 20  1  0  0  0  0
  9  8  1  0  0  0  0
 20 19  1  0  0  0  0
M  END
>  <FittedScore>
-31.55

$$$$
