A71EV2A-x4689a_best-RMSD
  FITTED

 39 40     0  0  0  0  0  0  0999 V2000
    9.9512   16.6624   19.1443 O    0  0  0  0  0  0  0  0  0  0  0  0
   10.4341   15.6289   19.5645 C    0  0  0  0  0  0  0  0  0  0  0  0
   10.8524   14.6888   18.6998 N    0  0  0  0  0  0  0  0  0  0  0  0
   10.4945   15.2247   21.0413 C    0  0  0  0  0  0  0  0  0  0  0  0
   11.3495   16.2172   21.8800 C    0  0  0  0  0  0  0  0  0  0  0  0
   11.4097   15.7473   23.3533 C    0  0  0  0  0  0  0  0  0  0  0  0
    9.9985   15.4538   23.9382 C    0  0  0  0  0  0  0  0  0  0  0  0
    9.0812   15.0025   21.6733 C    0  0  0  0  0  0  0  0  0  0  0  0
    9.1218   14.5454   23.1062 N    0  0  0  0  0  0  0  0  0  0  0  0
    8.2911   13.5517   23.6022 C    0  0  0  0  0  0  0  0  0  0  0  0
    7.4227   13.0442   22.9081 O    0  0  0  0  0  0  0  0  0  0  0  0
    8.4415   13.1335   25.0829 C    0  0  0  0  0  0  0  0  0  0  0  0
    7.6023   11.9289   25.5360 C    0  0  0  0  0  0  0  0  0  0  0  0
    7.9025   10.5927   25.1631 C    0  0  0  0  0  0  0  0  0  0  0  0
    9.2947   10.2562   24.0808 S    0  0  0  0  0  0  0  0  0  0  0  0
    9.3336    8.4935   23.6744 C    0  0  0  0  0  0  0  0  0  0  0  0
    6.5030   12.1585   26.3859 C    0  0  0  0  0  0  0  0  0  0  0  0
    5.7444   11.0746   26.8444 C    0  0  0  0  0  0  0  0  0  0  0  0
    6.0305    9.7922   26.5013 N    0  0  0  0  0  0  0  0  0  0  0  0
    7.0806    9.5612   25.6700 C    0  0  0  0  0  0  0  0  0  0  0  0
   10.8611   14.8930   17.7059 H    0  0  0  0  0  0  0  0  0  0  0  0
   11.1052   13.7580   19.0283 H    0  0  0  0  0  0  0  0  0  0  0  0
   11.0050   14.2540   21.1178 H    0  0  0  0  0  0  0  0  0  0  0  0
   12.3672   16.2675   21.4738 H    0  0  0  0  0  0  0  0  0  0  0  0
   10.9361   17.2297   21.8283 H    0  0  0  0  0  0  0  0  0  0  0  0
   12.0233   14.8453   23.4265 H    0  0  0  0  0  0  0  0  0  0  0  0
   11.9001   16.5091   23.9620 H    0  0  0  0  0  0  0  0  0  0  0  0
   10.1893   15.0691   24.9370 H    0  0  0  0  0  0  0  0  0  0  0  0
    9.4668   16.3966   24.0878 H    0  0  0  0  0  0  0  0  0  0  0  0
    8.5648   14.2770   21.0386 H    0  0  0  0  0  0  0  0  0  0  0  0
    8.4941   15.9236   21.6173 H    0  0  0  0  0  0  0  0  0  0  0  0
    9.4864   12.9012   25.3068 H    0  0  0  0  0  0  0  0  0  0  0  0
    8.1956   13.9957   25.7070 H    0  0  0  0  0  0  0  0  0  0  0  0
    9.4761    7.9143   24.5880 H    0  0  0  0  0  0  0  0  0  0  0  0
   10.1757    8.2998   23.0067 H    0  0  0  0  0  0  0  0  0  0  0  0
    8.4035    8.1878   23.1866 H    0  0  0  0  0  0  0  0  0  0  0  0
    6.2336   13.1669   26.6943 H    0  0  0  0  0  0  0  0  0  0  0  0
    4.8954   11.2680   27.4928 H    0  0  0  0  0  0  0  0  0  0  0  0
    7.2674    8.5284   25.4059 H    0  0  0  0  0  0  0  0  0  0  0  0
  9 10  1  0  0  0  0
  7  9  1  0  0  0  0
  6  7  1  0  0  0  0
  5  6  1  0  0  0  0
  4  5  1  0  0  0  0
  2  4  1  0  0  0  0
  1  2  2  0  0  0  0
  3  2  1  0  0  0  0
 21  3  1  0  0  0  0
 22  3  1  0  0  0  0
 23  4  1  0  0  0  0
 24  5  1  0  0  0  0
 25  5  1  0  0  0  0
 26  6  1  0  0  0  0
 27  6  1  0  0  0  0
 28  7  1  0  0  0  0
 29  7  1  0  0  0  0
  8  4  1  0  0  0  0
 30  8  1  0  0  0  0
 31  8  1  0  0  0  0
 11 10  2  0  0  0  0
 12 10  1  0  0  0  0
 32 12  1  0  0  0  0
 33 12  1  0  0  0  0
 13 12  1  0  0  0  0
 14 13  1  0  0  0  0
 20 14  2  0  0  0  0
 15 14  1  0  0  0  0
 16 15  1  0  0  0  0
 34 16  1  0  0  0  0
 35 16  1  0  0  0  0
 36 16  1  0  0  0  0
 17 13  2  0  0  0  0
 37 17  1  0  0  0  0
 18 17  1  0  0  0  0
 38 18  1  0  0  0  0
 19 18  2  0  0  0  0
 39 20  1  0  0  0  0
  9  8  1  0  0  0  0
 20 19  1  0  0  0  0
M  END
>  <FittedScore>
-31.65

$$$$
