A71EV2A-x4903b_best-RMSD
  FITTED

 38 39     0  0  0  0  0  0  0999 V2000
    9.8518   16.7131   19.3756 O    0  0  0  0  0  0  0  0  0  0  0  0
   10.3381   15.6509   19.7134 C    0  0  0  0  0  0  0  0  0  0  0  0
   10.8110   14.7748   18.8011 N    0  0  0  0  0  0  0  0  0  0  0  0
   10.3594   15.1324   21.1433 C    0  0  0  0  0  0  0  0  0  0  0  0
   11.5422   15.7494   21.9372 C    0  0  0  0  0  0  0  0  0  0  0  0
   11.6016   15.1561   23.3713 C    0  0  0  0  0  0  0  0  0  0  0  0
   10.2266   15.1967   24.0922 C    0  0  0  0  0  0  0  0  0  0  0  0
    9.0272   15.3104   21.9224 C    0  0  0  0  0  0  0  0  0  0  0  0
    9.0996   14.6409   23.2607 N    0  0  0  0  0  0  0  0  0  0  0  0
    8.2977   13.5803   23.6061 C    0  0  0  0  0  0  0  0  0  0  0  0
    7.5111   13.0754   22.8145 O    0  0  0  0  0  0  0  0  0  0  0  0
    8.4520   13.0957   24.8638 O    0  0  0  0  0  0  0  0  0  0  0  0
    7.7754   11.9798   25.3166 C    0  0  0  0  0  0  0  0  0  0  0  0
    8.1224   10.6907   24.8710 C    0  0  0  0  0  0  0  0  0  0  0  0
    9.1602   10.5511   23.9597 O    0  0  0  0  0  0  0  0  0  0  0  0
    9.6247    9.2795   23.4447 C    0  0  0  0  0  0  0  0  0  0  0  0
    6.7021   12.1656   26.1966 C    0  0  0  0  0  0  0  0  0  0  0  0
    5.9434   11.0669   26.6134 C    0  0  0  0  0  0  0  0  0  0  0  0
    4.5794   11.2846   27.6538 CL   0  0  0  0  0  0  0  0  0  0  0  0
    6.2726    9.7856   26.1640 C    0  0  0  0  0  0  0  0  0  0  0  0
    7.3569    9.5938   25.3069 C    0  0  0  0  0  0  0  0  0  0  0  0
   11.0161   13.8200   19.0943 H    0  0  0  0  0  0  0  0  0  0  0  0
   10.7993   14.9961   17.8130 H    0  0  0  0  0  0  0  0  0  0  0  0
   10.5284   14.0481   21.1129 H    0  0  0  0  0  0  0  0  0  0  0  0
   12.4834   15.5256   21.4288 H    0  0  0  0  0  0  0  0  0  0  0  0
   11.4508   16.8369   21.9864 H    0  0  0  0  0  0  0  0  0  0  0  0
   11.9395   14.1124   23.3118 H    0  0  0  0  0  0  0  0  0  0  0  0
   12.3493   15.6939   23.9632 H    0  0  0  0  0  0  0  0  0  0  0  0
   10.3642   14.6573   25.0292 H    0  0  0  0  0  0  0  0  0  0  0  0
    9.9910   16.2262   24.3787 H    0  0  0  0  0  0  0  0  0  0  0  0
    8.2223   14.9199   21.2933 H    0  0  0  0  0  0  0  0  0  0  0  0
    8.7893   16.3692   22.0573 H    0  0  0  0  0  0  0  0  0  0  0  0
    8.8256    8.6827   22.9974 H    0  0  0  0  0  0  0  0  0  0  0  0
   10.0974    8.7136   24.2514 H    0  0  0  0  0  0  0  0  0  0  0  0
   10.3745    9.4741   22.6730 H    0  0  0  0  0  0  0  0  0  0  0  0
    6.4570   13.1644   26.5385 H    0  0  0  0  0  0  0  0  0  0  0  0
    5.6959    8.9214   26.4924 H    0  0  0  0  0  0  0  0  0  0  0  0
    7.5753    8.5788   24.9781 H    0  0  0  0  0  0  0  0  0  0  0  0
  9 10  1  0  0  0  0
  7  9  1  0  0  0  0
  6  7  1  0  0  0  0
  5  6  1  0  0  0  0
  4  5  1  0  0  0  0
  2  4  1  0  0  0  0
  1  2  2  0  0  0  0
  3  2  1  0  0  0  0
 22  3  1  0  0  0  0
 23  3  1  0  0  0  0
 24  4  1  0  0  0  0
 25  5  1  0  0  0  0
 26  5  1  0  0  0  0
 27  6  1  0  0  0  0
 28  6  1  0  0  0  0
 29  7  1  0  0  0  0
 30  7  1  0  0  0  0
  8  4  1  0  0  0  0
 31  8  1  0  0  0  0
 32  8  1  0  0  0  0
 11 10  2  0  0  0  0
 12 10  1  0  0  0  0
 13 12  1  0  0  0  0
 14 13  1  0  0  0  0
 21 14  2  0  0  0  0
 15 14  1  0  0  0  0
 16 15  1  0  0  0  0
 33 16  1  0  0  0  0
 34 16  1  0  0  0  0
 35 16  1  0  0  0  0
 17 13  2  0  0  0  0
 36 17  1  0  0  0  0
 18 17  1  0  0  0  0
 19 18  1  0  0  0  0
 20 18  2  0  0  0  0
 37 20  1  0  0  0  0
 38 21  1  0  0  0  0
  9  8  1  0  0  0  0
 21 20  1  0  0  0  0
M  END
>  <FittedScore>
-33.57

$$$$
