A71EV2A-x4979b_lowest-energy
  FITTED

 34 35     0  0  0  0  0  0  0999 V2000
    9.4945    9.9776   23.9421 CL   0  0  0  0  0  0  0  0  0  0  0  0
    8.1858   10.4424   24.9872 C    0  0  0  0  0  0  0  0  0  0  0  0
    7.2893    9.4578   25.4269 C    0  0  0  0  0  0  0  0  0  0  0  0
    6.2647    9.7448   26.2761 N    0  0  0  0  0  0  0  0  0  0  0  0
    6.1128   11.0374   26.6737 C    0  0  0  0  0  0  0  0  0  0  0  0
    6.9156   12.0601   26.2723 N    0  0  0  0  0  0  0  0  0  0  0  0
    7.9586   11.7677   25.4370 C    0  0  0  0  0  0  0  0  0  0  0  0
    8.8356   12.9395   25.0073 C    0  0  0  0  0  0  0  0  0  0  0  0
    8.5074   13.5079   23.6165 C    0  0  0  0  0  0  0  0  0  0  0  0
    7.6170   13.0130   22.9415 O    0  0  0  0  0  0  0  0  0  0  0  0
    9.2485   14.5839   23.1535 N    0  0  0  0  0  0  0  0  0  0  0  0
   10.1941   15.4409   23.9577 C    0  0  0  0  0  0  0  0  0  0  0  0
   11.5923   15.6287   23.3036 C    0  0  0  0  0  0  0  0  0  0  0  0
   11.4838   16.1486   21.8446 C    0  0  0  0  0  0  0  0  0  0  0  0
    9.1117   15.1356   21.7669 C    0  0  0  0  0  0  0  0  0  0  0  0
   10.4868   15.2601   21.0456 C    0  0  0  0  0  0  0  0  0  0  0  0
   10.3587   15.7360   19.6011 C    0  0  0  0  0  0  0  0  0  0  0  0
    9.7887   16.7545   19.2641 O    0  0  0  0  0  0  0  0  0  0  0  0
   10.7845   14.8335   18.6984 N    0  0  0  0  0  0  0  0  0  0  0  0
    7.4037    8.4363   25.0748 H    0  0  0  0  0  0  0  0  0  0  0  0
    5.2992   11.2713   27.3551 H    0  0  0  0  0  0  0  0  0  0  0  0
    8.7303   13.7275   25.7590 H    0  0  0  0  0  0  0  0  0  0  0  0
    9.8845   12.6301   25.0444 H    0  0  0  0  0  0  0  0  0  0  0  0
    9.7334   16.4226   24.1006 H    0  0  0  0  0  0  0  0  0  0  0  0
   10.3780   15.0715   24.9629 H    0  0  0  0  0  0  0  0  0  0  0  0
   12.1904   16.3294   23.8942 H    0  0  0  0  0  0  0  0  0  0  0  0
   12.1290   14.6739   23.3106 H    0  0  0  0  0  0  0  0  0  0  0  0
   11.1585   17.1978   21.8422 H    0  0  0  0  0  0  0  0  0  0  0  0
   12.4704   16.1261   21.3708 H    0  0  0  0  0  0  0  0  0  0  0  0
    8.6149   16.1107   21.8163 H    0  0  0  0  0  0  0  0  0  0  0  0
    8.4719   14.5128   21.1360 H    0  0  0  0  0  0  0  0  0  0  0  0
   10.9143   14.2475   21.0505 H    0  0  0  0  0  0  0  0  0  0  0  0
   11.0686   13.9007   18.9973 H    0  0  0  0  0  0  0  0  0  0  0  0
   10.7474   15.0563   17.7135 H    0  0  0  0  0  0  0  0  0  0  0  0
  9 11  1  0  0  0  0
  8  9  1  0  0  0  0
  7  8  1  0  0  0  0
  6  7  2  0  0  0  0
  5  6  1  0  0  0  0
  4  5  2  0  0  0  0
  3  4  1  0  0  0  0
  2  3  2  0  0  0  0
  1  2  1  0  0  0  0
 20  3  1  0  0  0  0
 21  5  1  0  0  0  0
 22  8  1  0  0  0  0
 23  8  1  0  0  0  0
 10  9  2  0  0  0  0
 12 11  1  0  0  0  0
 24 12  1  0  0  0  0
 25 12  1  0  0  0  0
 13 12  1  0  0  0  0
 26 13  1  0  0  0  0
 27 13  1  0  0  0  0
 14 13  1  0  0  0  0
 28 14  1  0  0  0  0
 29 14  1  0  0  0  0
 15 11  1  0  0  0  0
 30 15  1  0  0  0  0
 31 15  1  0  0  0  0
 16 14  1  0  0  0  0
 17 16  1  0  0  0  0
 32 16  1  0  0  0  0
 18 17  2  0  0  0  0
 19 17  1  0  0  0  0
 33 19  1  0  0  0  0
 34 19  1  0  0  0  0
  7  2  1  0  0  0  0
 16 15  1  0  0  0  0
M  END
>  <FittedScore>
-31.50

$$$$
