A71EV2A-x7442a_lowest-energy
  FITTED

 47 49     0  0  0  0  0  0  0999 V2000
    9.2509    8.9827   23.3522 C    0  0  0  0  0  0  0  0  0  0  0  0
    9.1274   10.6440   24.0879 S    0  0  0  0  0  0  0  0  0  0  0  0
    7.5646   10.7500   24.9607 C    0  0  0  0  0  0  0  0  0  0  0  0
    6.8517    9.5997   25.3334 C    0  0  0  0  0  0  0  0  0  0  0  0
    5.6060    9.6915   25.9652 C    0  0  0  0  0  0  0  0  0  0  0  0
    5.0061   10.9469   26.2761 C    0  0  0  0  0  0  0  0  0  0  0  0
    3.6335   11.0566   26.9343 C    0  0  0  0  0  0  0  0  0  0  0  0
    2.8297   12.2336   26.9339 C    0  0  0  0  0  0  0  0  0  0  0  0
    1.5811   12.2247   27.5813 C    0  0  0  0  0  0  0  0  0  0  0  0
    1.1402   11.0542   28.2097 C    0  0  0  0  0  0  0  0  0  0  0  0
    1.9591    9.9172   28.1845 C    0  0  0  0  0  0  0  0  0  0  0  0
    3.1723    9.9172   27.5711 N    0  0  0  0  0  0  0  0  0  0  0  0
    5.7642   12.0988   25.9149 C    0  0  0  0  0  0  0  0  0  0  0  0
    7.0084   12.0096   25.2703 C    0  0  0  0  0  0  0  0  0  0  0  0
    7.6585   13.1936   24.9121 O    0  0  0  0  0  0  0  0  0  0  0  0
    7.6655   13.6520   23.6189 C    0  0  0  0  0  0  0  0  0  0  0  0
    6.9406   13.1515   22.7728 O    0  0  0  0  0  0  0  0  0  0  0  0
    8.5815   14.6195   23.2898 N    0  0  0  0  0  0  0  0  0  0  0  0
    9.7808   14.9582   24.1272 C    0  0  0  0  0  0  0  0  0  0  0  0
   11.1322   14.7661   23.3734 C    0  0  0  0  0  0  0  0  0  0  0  0
   11.1343   15.4501   21.9774 C    0  0  0  0  0  0  0  0  0  0  0  0
    9.8887   15.0269   21.1485 C    0  0  0  0  0  0  0  0  0  0  0  0
    9.9722   15.6533   19.7479 C    0  0  0  0  0  0  0  0  0  0  0  0
   10.5572   14.8816   18.8094 N    0  0  0  0  0  0  0  0  0  0  0  0
    9.6378   16.7908   19.4779 O    0  0  0  0  0  0  0  0  0  0  0  0
    8.5940   15.3492   21.9679 C    0  0  0  0  0  0  0  0  0  0  0  0
   10.1378    8.9462   22.7169 H    0  0  0  0  0  0  0  0  0  0  0  0
    8.3717    8.7723   22.7407 H    0  0  0  0  0  0  0  0  0  0  0  0
    9.3561    8.2306   24.1352 H    0  0  0  0  0  0  0  0  0  0  0  0
    7.2406    8.6044   25.1377 H    0  0  0  0  0  0  0  0  0  0  0  0
    5.1085    8.7494   26.2080 H    0  0  0  0  0  0  0  0  0  0  0  0
    3.1520   13.1484   26.4401 H    0  0  0  0  0  0  0  0  0  0  0  0
    0.9598   13.1185   27.5976 H    0  0  0  0  0  0  0  0  0  0  0  0
    0.1792   11.0273   28.7124 H    0  0  0  0  0  0  0  0  0  0  0  0
    1.6224    9.0073   28.6681 H    0  0  0  0  0  0  0  0  0  0  0  0
    5.3836   13.0897   26.1177 H    0  0  0  0  0  0  0  0  0  0  0  0
    9.8481   14.3346   25.0217 H    0  0  0  0  0  0  0  0  0  0  0  0
    9.6983   15.9840   24.4956 H    0  0  0  0  0  0  0  0  0  0  0  0
   11.3226   13.6918   23.2618 H    0  0  0  0  0  0  0  0  0  0  0  0
   11.9399   15.1853   23.9755 H    0  0  0  0  0  0  0  0  0  0  0  0
   12.0482   15.1862   21.4384 H    0  0  0  0  0  0  0  0  0  0  0  0
   11.1493   16.5376   22.1026 H    0  0  0  0  0  0  0  0  0  0  0  0
    9.8917   13.9253   21.0110 H    0  0  0  0  0  0  0  0  0  0  0  0
   10.8035   13.9159   19.0363 H    0  0  0  0  0  0  0  0  0  0  0  0
   10.6194   15.2046   17.8459 H    0  0  0  0  0  0  0  0  0  0  0  0
    7.7158   15.1189   21.3621 H    0  0  0  0  0  0  0  0  0  0  0  0
    8.5182   16.4244   22.1576 H    0  0  0  0  0  0  0  0  0  0  0  0
 14 15  1  0  0  0  0
 13 14  2  0  0  0  0
  6 13  1  0  0  0  0
  5  6  2  0  0  0  0
  4  5  1  0  0  0  0
  3  4  2  0  0  0  0
  2  3  1  0  0  0  0
  1  2  1  0  0  0  0
 27  1  1  0  0  0  0
 28  1  1  0  0  0  0
 29  1  1  0  0  0  0
 30  4  1  0  0  0  0
 31  5  1  0  0  0  0
  7  6  1  0  0  0  0
  8  7  2  0  0  0  0
  9  8  1  0  0  0  0
 32  8  1  0  0  0  0
 10  9  2  0  0  0  0
 33  9  1  0  0  0  0
 11 10  1  0  0  0  0
 34 10  1  0  0  0  0
 12 11  2  0  0  0  0
 35 11  1  0  0  0  0
 36 13  1  0  0  0  0
 16 15  1  0  0  0  0
 17 16  2  0  0  0  0
 18 16  1  0  0  0  0
 19 18  1  0  0  0  0
 20 19  1  0  0  0  0
 37 19  1  0  0  0  0
 38 19  1  0  0  0  0
 21 20  1  0  0  0  0
 39 20  1  0  0  0  0
 40 20  1  0  0  0  0
 22 21  1  0  0  0  0
 41 21  1  0  0  0  0
 42 21  1  0  0  0  0
 23 22  1  0  0  0  0
 26 22  1  0  0  0  0
 43 22  1  0  0  0  0
 24 23  1  0  0  0  0
 25 23  2  0  0  0  0
 44 24  1  0  0  0  0
 45 24  1  0  0  0  0
 46 26  1  0  0  0  0
 47 26  1  0  0  0  0
 12  7  1  0  0  0  0
 14  3  1  0  0  0  0
 26 18  1  0  0  0  0
M  END
>  <FittedScore>
-37.02

$$$$
