A71EV2A-x3305a_best-RMSD
  FITTED

 41 44     0  0  0  0  0  0  0999 V2000
   15.2221   13.2540   25.2442 O    0  0  0  0  0  0  0  0  0  0  0  0
   14.5531   14.0108   25.9200 C    0  0  0  0  0  0  0  0  0  0  0  0
   14.5484   14.0191   27.2589 N    0  0  0  0  0  0  0  0  0  0  0  0
   13.6546   14.9914   27.8673 C    0  0  0  0  0  0  0  0  0  0  0  0
   12.8915   15.6138   26.6826 C    0  0  0  0  0  0  0  0  0  0  0  0
   13.5854   15.0615   25.4047 C    0  0  0  0  0  0  0  0  0  0  0  0
   12.6200   14.5365   24.4092 N    0  0  0  0  0  0  0  0  0  0  0  0
   12.4688   15.0339   23.1476 C    0  0  0  0  0  0  0  0  0  0  0  0
   11.6459   14.1848   22.4540 C    0  0  0  0  0  0  0  0  0  0  0  0
   11.9499   13.3661   24.6581 N    0  0  0  0  0  0  0  0  0  0  0  0
   11.3006   13.1850   23.3385 C    0  0  0  0  0  0  0  0  0  0  0  0
   10.4452   12.1644   23.0362 N    0  0  0  0  0  0  0  0  0  0  0  0
    9.5482   11.4200   23.7666 C    0  0  0  0  0  0  0  0  0  0  0  0
    9.3914   10.0202   23.5634 C    0  0  0  0  0  0  0  0  0  0  0  0
   10.2875    9.2275   22.6162 C    0  0  0  0  0  0  0  0  0  0  0  0
    8.7287   12.0286   24.7393 C    0  0  0  0  0  0  0  0  0  0  0  0
    8.6414   13.4070   25.2687 C    0  0  0  0  0  0  0  0  0  0  0  0
    7.7654   13.4150   26.2221 N    0  0  0  0  0  0  0  0  0  0  0  0
    7.1968   12.1759   26.3112 N    0  0  0  0  0  0  0  0  0  0  0  0
    6.3854   11.8183   27.4787 C    0  0  0  0  0  0  0  0  0  0  0  0
    7.7854   11.3145   25.4404 C    0  0  0  0  0  0  0  0  0  0  0  0
    7.5744    9.9556   25.2158 C    0  0  0  0  0  0  0  0  0  0  0  0
    8.3915    9.3144   24.2737 C    0  0  0  0  0  0  0  0  0  0  0  0
   15.2252   13.4954   27.8073 H    0  0  0  0  0  0  0  0  0  0  0  0
   12.9741   14.4949   28.5627 H    0  0  0  0  0  0  0  0  0  0  0  0
   14.2341   15.7455   28.4079 H    0  0  0  0  0  0  0  0  0  0  0  0
   11.8299   15.3500   26.7400 H    0  0  0  0  0  0  0  0  0  0  0  0
   12.9616   16.7050   26.7108 H    0  0  0  0  0  0  0  0  0  0  0  0
   14.1939   15.8629   24.9709 H    0  0  0  0  0  0  0  0  0  0  0  0
   12.9337   15.9387   22.7629 H    0  0  0  0  0  0  0  0  0  0  0  0
   11.3186   14.2906   21.4231 H    0  0  0  0  0  0  0  0  0  0  0  0
   10.5326   11.8626   22.0658 H    0  0  0  0  0  0  0  0  0  0  0  0
   10.0251    8.1666   22.5780 H    0  0  0  0  0  0  0  0  0  0  0  0
   11.3345    9.3022   22.9205 H    0  0  0  0  0  0  0  0  0  0  0  0
   10.1947    9.6141   21.5989 H    0  0  0  0  0  0  0  0  0  0  0  0
    9.2032   14.2858   24.9649 H    0  0  0  0  0  0  0  0  0  0  0  0
    6.9108   11.1043   28.1173 H    0  0  0  0  0  0  0  0  0  0  0  0
    5.4473   11.3543   27.1692 H    0  0  0  0  0  0  0  0  0  0  0  0
    6.1307   12.6834   28.0968 H    0  0  0  0  0  0  0  0  0  0  0  0
    6.8166    9.3992   25.7628 H    0  0  0  0  0  0  0  0  0  0  0  0
    8.2469    8.2476   24.1157 H    0  0  0  0  0  0  0  0  0  0  0  0
  7 10  1  0  0  0  0
  6  7  1  0  0  0  0
  5  6  1  0  0  0  0
  4  5  1  0  0  0  0
  3  4  1  0  0  0  0
  2  3  1  0  0  0  0
  1  2  2  0  0  0  0
 24  3  1  0  0  0  0
 25  4  1  0  0  0  0
 26  4  1  0  0  0  0
 27  5  1  0  0  0  0
 28  5  1  0  0  0  0
 29  6  1  0  0  0  0
  8  7  1  0  0  0  0
 30  8  1  0  0  0  0
  9  8  2  0  0  0  0
 31  9  1  0  0  0  0
 11  9  1  0  0  0  0
 12 11  1  0  0  0  0
 32 12  1  0  0  0  0
 13 12  1  0  0  0  0
 14 13  1  0  0  0  0
 23 14  2  0  0  0  0
 15 14  1  0  0  0  0
 33 15  1  0  0  0  0
 34 15  1  0  0  0  0
 35 15  1  0  0  0  0
 16 13  2  0  0  0  0
 17 16  1  0  0  0  0
 36 17  1  0  0  0  0
 18 17  2  0  0  0  0
 19 18  1  0  0  0  0
 20 19  1  0  0  0  0
 37 20  1  0  0  0  0
 38 20  1  0  0  0  0
 39 20  1  0  0  0  0
 21 16  1  0  0  0  0
 22 21  2  0  0  0  0
 40 22  1  0  0  0  0
 41 23  1  0  0  0  0
  6  2  1  0  0  0  0
 11 10  2  0  0  0  0
 21 19  1  0  0  0  0
 23 22  1  0  0  0  0
M  END
>  <FittedScore>
-34.35

$$$$
