A71EV2A-x3305a_lowest-energy
  FITTED

 41 44     0  0  0  0  0  0  0999 V2000
   15.2807   13.2738   25.2360 O    0  0  0  0  0  0  0  0  0  0  0  0
   14.5678   13.9742   25.9264 C    0  0  0  0  0  0  0  0  0  0  0  0
   14.5091   13.8972   27.2608 N    0  0  0  0  0  0  0  0  0  0  0  0
   13.5732   14.8058   27.8949 C    0  0  0  0  0  0  0  0  0  0  0  0
   12.8827   15.5390   26.7294 C    0  0  0  0  0  0  0  0  0  0  0  0
   13.5836   15.0249   25.4395 C    0  0  0  0  0  0  0  0  0  0  0  0
   12.6208   14.5028   24.4424 N    0  0  0  0  0  0  0  0  0  0  0  0
   12.4747   15.0104   23.1852 C    0  0  0  0  0  0  0  0  0  0  0  0
   11.6642   14.1607   22.4784 C    0  0  0  0  0  0  0  0  0  0  0  0
   11.9602   13.3226   24.6751 N    0  0  0  0  0  0  0  0  0  0  0  0
   11.3230   13.1465   23.3491 C    0  0  0  0  0  0  0  0  0  0  0  0
   10.4814   12.1168   23.0351 N    0  0  0  0  0  0  0  0  0  0  0  0
    9.5771   11.3699   23.7533 C    0  0  0  0  0  0  0  0  0  0  0  0
    9.4263    9.9695   23.5500 C    0  0  0  0  0  0  0  0  0  0  0  0
   10.3444    9.1766   22.6261 C    0  0  0  0  0  0  0  0  0  0  0  0
    8.7377   11.9819   24.7038 C    0  0  0  0  0  0  0  0  0  0  0  0
    8.6136   13.3712   25.1980 C    0  0  0  0  0  0  0  0  0  0  0  0
    7.6938   13.3952   26.1069 N    0  0  0  0  0  0  0  0  0  0  0  0
    7.1578   12.1458   26.2186 N    0  0  0  0  0  0  0  0  0  0  0  0
    6.1589   11.8457   27.2469 C    0  0  0  0  0  0  0  0  0  0  0  0
    7.7796   11.2697   25.3867 C    0  0  0  0  0  0  0  0  0  0  0  0
    7.5821    9.9066   25.1698 C    0  0  0  0  0  0  0  0  0  0  0  0
    8.4143    9.2643   24.2421 C    0  0  0  0  0  0  0  0  0  0  0  0
   15.1936   13.3808   27.8023 H    0  0  0  0  0  0  0  0  0  0  0  0
   12.8535   14.2381   28.4880 H    0  0  0  0  0  0  0  0  0  0  0  0
   14.1161   15.4969   28.5438 H    0  0  0  0  0  0  0  0  0  0  0  0
   11.8057   15.3400   26.7426 H    0  0  0  0  0  0  0  0  0  0  0  0
   13.0133   16.6200   26.8252 H    0  0  0  0  0  0  0  0  0  0  0  0
   14.1767   15.8444   25.0168 H    0  0  0  0  0  0  0  0  0  0  0  0
   12.9386   15.9216   22.8138 H    0  0  0  0  0  0  0  0  0  0  0  0
   11.3455   14.2776   21.4478 H    0  0  0  0  0  0  0  0  0  0  0  0
   10.5546   11.8413   22.0562 H    0  0  0  0  0  0  0  0  0  0  0  0
   10.2444    9.5236   21.5950 H    0  0  0  0  0  0  0  0  0  0  0  0
   10.1280    8.1038   22.6350 H    0  0  0  0  0  0  0  0  0  0  0  0
   11.3864    9.2987   22.9308 H    0  0  0  0  0  0  0  0  0  0  0  0
    9.1728   14.2499   24.8917 H    0  0  0  0  0  0  0  0  0  0  0  0
    5.3569   11.2276   26.8385 H    0  0  0  0  0  0  0  0  0  0  0  0
    5.6934   12.7463   27.6571 H    0  0  0  0  0  0  0  0  0  0  0  0
    6.6089   11.2958   28.0761 H    0  0  0  0  0  0  0  0  0  0  0  0
    6.8176    9.3492   25.7077 H    0  0  0  0  0  0  0  0  0  0  0  0
    8.2734    8.1964   24.0821 H    0  0  0  0  0  0  0  0  0  0  0  0
  7 10  1  0  0  0  0
  6  7  1  0  0  0  0
  5  6  1  0  0  0  0
  4  5  1  0  0  0  0
  3  4  1  0  0  0  0
  2  3  1  0  0  0  0
  1  2  2  0  0  0  0
 24  3  1  0  0  0  0
 25  4  1  0  0  0  0
 26  4  1  0  0  0  0
 27  5  1  0  0  0  0
 28  5  1  0  0  0  0
 29  6  1  0  0  0  0
  8  7  1  0  0  0  0
 30  8  1  0  0  0  0
  9  8  2  0  0  0  0
 31  9  1  0  0  0  0
 11  9  1  0  0  0  0
 12 11  1  0  0  0  0
 32 12  1  0  0  0  0
 13 12  1  0  0  0  0
 14 13  1  0  0  0  0
 23 14  2  0  0  0  0
 15 14  1  0  0  0  0
 33 15  1  0  0  0  0
 34 15  1  0  0  0  0
 35 15  1  0  0  0  0
 16 13  2  0  0  0  0
 17 16  1  0  0  0  0
 36 17  1  0  0  0  0
 18 17  2  0  0  0  0
 19 18  1  0  0  0  0
 20 19  1  0  0  0  0
 37 20  1  0  0  0  0
 38 20  1  0  0  0  0
 39 20  1  0  0  0  0
 21 16  1  0  0  0  0
 22 21  2  0  0  0  0
 40 22  1  0  0  0  0
 41 23  1  0  0  0  0
  6  2  1  0  0  0  0
 11 10  2  0  0  0  0
 21 19  1  0  0  0  0
 23 22  1  0  0  0  0
M  END
>  <FittedScore>
-34.93

$$$$
