A71EV2A-x3181a_lowest-energy
  FITTED

 34 36     0  0  0  0  0  0  0999 V2000
    9.6688   14.2436   24.8476 O    0  0  0  0  0  0  0  0  0  0  0  0
    9.8149   13.3873   24.0008 C    0  0  0  0  0  0  0  0  0  0  0  0
    9.1718   12.1143   24.1245 C    0  0  0  0  0  0  0  0  0  0  0  0
    9.5137   11.0306   23.4843 N    0  0  0  0  0  0  0  0  0  0  0  0
    8.0749   11.7330   25.0585 C    0  0  0  0  0  0  0  0  0  0  0  0
    7.8830   10.3771   24.8823 C    0  0  0  0  0  0  0  0  0  0  0  0
    6.9228    9.6623   25.6075 C    0  0  0  0  0  0  0  0  0  0  0  0
    6.1526   10.3640   26.5509 C    0  0  0  0  0  0  0  0  0  0  0  0
    6.3382   11.7506   26.7346 C    0  0  0  0  0  0  0  0  0  0  0  0
    7.3036   12.4516   25.9841 C    0  0  0  0  0  0  0  0  0  0  0  0
    8.7649    9.9844   23.9260 N    0  0  0  0  0  0  0  0  0  0  0  0
    9.0627    8.6270   23.4696 C    0  0  0  0  0  0  0  0  0  0  0  0
   10.7469   13.4804   23.0148 N    0  0  0  0  0  0  0  0  0  0  0  0
   11.9730   14.2948   23.0507 C    0  0  0  0  0  0  0  0  0  0  0  0
   11.9192   15.6897   22.3880 C    0  0  0  0  0  0  0  0  0  0  0  0
   11.2886   15.6743   21.0620 N    0  0  0  0  0  0  0  0  0  0  0  0
   12.0137   15.2147   20.0047 N    0  0  0  0  0  0  0  0  0  0  0  0
   10.9978   15.4331   18.9554 C    0  0  0  0  0  0  0  0  0  0  0  0
    9.6960   15.9447   19.3996 N    0  0  0  0  0  0  0  0  0  0  0  0
   10.0100   16.0791   20.8096 C    0  0  0  0  0  0  0  0  0  0  0  0
    6.7809    8.5959   25.4572 H    0  0  0  0  0  0  0  0  0  0  0  0
    5.4125    9.8321   27.1456 H    0  0  0  0  0  0  0  0  0  0  0  0
    5.7356   12.2839   27.4663 H    0  0  0  0  0  0  0  0  0  0  0  0
    7.4357   13.5182   26.1286 H    0  0  0  0  0  0  0  0  0  0  0  0
    9.5310    8.0412   24.2670 H    0  0  0  0  0  0  0  0  0  0  0  0
    9.7389    8.6090   22.6096 H    0  0  0  0  0  0  0  0  0  0  0  0
    8.1506    8.1070   23.1668 H    0  0  0  0  0  0  0  0  0  0  0  0
   10.7599   12.7304   22.3295 H    0  0  0  0  0  0  0  0  0  0  0  0
   12.7548   13.7059   22.5612 H    0  0  0  0  0  0  0  0  0  0  0  0
   12.3066   14.4049   24.0870 H    0  0  0  0  0  0  0  0  0  0  0  0
   12.9422   16.0757   22.3281 H    0  0  0  0  0  0  0  0  0  0  0  0
   11.3985   16.3716   23.0670 H    0  0  0  0  0  0  0  0  0  0  0  0
   11.2099   15.2370   17.9041 H    0  0  0  0  0  0  0  0  0  0  0  0
    9.2915   16.4358   21.5466 H    0  0  0  0  0  0  0  0  0  0  0  0
  3  2  1  0  0  0  0
  4  3  2  0  0  0  0
 11  4  1  0  0  0  0
  1  2  2  0  0  0  0
  5  3  1  0  0  0  0
 10  5  2  0  0  0  0
  6  5  1  0  0  0  0
  7  6  2  0  0  0  0
 21  7  1  0  0  0  0
  8  7  1  0  0  0  0
 22  8  1  0  0  0  0
  9  8  2  0  0  0  0
 23  9  1  0  0  0  0
 24 10  1  0  0  0  0
 12 11  1  0  0  0  0
 25 12  1  0  0  0  0
 26 12  1  0  0  0  0
 27 12  1  0  0  0  0
 13  2  1  0  0  0  0
 28 13  1  0  0  0  0
 14 13  1  0  0  0  0
 29 14  1  0  0  0  0
 30 14  1  0  0  0  0
 15 14  1  0  0  0  0
 31 15  1  0  0  0  0
 32 15  1  0  0  0  0
 16 15  1  0  0  0  0
 20 16  1  0  0  0  0
 17 16  1  0  0  0  0
 18 17  2  0  0  0  0
 33 18  1  0  0  0  0
 19 18  1  0  0  0  0
 34 20  1  0  0  0  0
 10  9  1  0  0  0  0
 11  6  1  0  0  0  0
 20 19  2  0  0  0  0
M  END
>  <FittedScore>
-26.09

$$$$
