A71EV2A-x3181a_best-RMSD
  FITTED

 34 36     0  0  0  0  0  0  0999 V2000
    9.6396   14.3459   24.7791 O    0  0  0  0  0  0  0  0  0  0  0  0
    9.8612   13.4975   23.9405 C    0  0  0  0  0  0  0  0  0  0  0  0
    9.2592   12.2031   24.0470 C    0  0  0  0  0  0  0  0  0  0  0  0
    9.6269   11.1350   23.3973 N    0  0  0  0  0  0  0  0  0  0  0  0
    8.1589   11.7856   24.9671 C    0  0  0  0  0  0  0  0  0  0  0  0
    8.0046   10.4262   24.7897 C    0  0  0  0  0  0  0  0  0  0  0  0
    7.0550    9.6819   25.5053 C    0  0  0  0  0  0  0  0  0  0  0  0
    6.2509   10.3613   26.4393 C    0  0  0  0  0  0  0  0  0  0  0  0
    6.3969   11.7536   26.6205 C    0  0  0  0  0  0  0  0  0  0  0  0
    7.3528   12.4794   25.8825 C    0  0  0  0  0  0  0  0  0  0  0  0
    8.9070   10.0647   23.8436 N    0  0  0  0  0  0  0  0  0  0  0  0
    9.2193    8.7086   23.3872 C    0  0  0  0  0  0  0  0  0  0  0  0
   10.8039   13.6624   22.9691 N    0  0  0  0  0  0  0  0  0  0  0  0
   11.8164   14.7424   22.9106 C    0  0  0  0  0  0  0  0  0  0  0  0
   12.1099   15.2831   21.4898 C    0  0  0  0  0  0  0  0  0  0  0  0
   10.9113   15.7385   20.7680 N    0  0  0  0  0  0  0  0  0  0  0  0
   10.1640   16.7534   21.2860 N    0  0  0  0  0  0  0  0  0  0  0  0
    9.1780   16.8737   20.1989 C    0  0  0  0  0  0  0  0  0  0  0  0
    9.3434   15.9416   19.0874 N    0  0  0  0  0  0  0  0  0  0  0  0
   10.5590   15.2929   19.5315 C    0  0  0  0  0  0  0  0  0  0  0  0
    6.9418    8.6101   25.3558 H    0  0  0  0  0  0  0  0  0  0  0  0
    5.5140    9.8141   27.0204 H    0  0  0  0  0  0  0  0  0  0  0  0
    5.7757   12.2742   27.3440 H    0  0  0  0  0  0  0  0  0  0  0  0
    7.4580   13.5512   26.0252 H    0  0  0  0  0  0  0  0  0  0  0  0
   10.0126    8.6841   22.6375 H    0  0  0  0  0  0  0  0  0  0  0  0
    8.3456    8.2319   22.9402 H    0  0  0  0  0  0  0  0  0  0  0  0
    9.5524    8.0773   24.2135 H    0  0  0  0  0  0  0  0  0  0  0  0
   10.8827   12.9324   22.2671 H    0  0  0  0  0  0  0  0  0  0  0  0
   12.7430   14.3414   23.3252 H    0  0  0  0  0  0  0  0  0  0  0  0
   11.5446   15.5870   23.5487 H    0  0  0  0  0  0  0  0  0  0  0  0
   12.6321   14.5003   20.9326 H    0  0  0  0  0  0  0  0  0  0  0  0
   12.8263   16.1063   21.5725 H    0  0  0  0  0  0  0  0  0  0  0  0
    8.3736   17.6034   20.2291 H    0  0  0  0  0  0  0  0  0  0  0  0
   11.0939   14.5569   18.9348 H    0  0  0  0  0  0  0  0  0  0  0  0
  3  2  1  0  0  0  0
  4  3  2  0  0  0  0
 11  4  1  0  0  0  0
  1  2  2  0  0  0  0
  5  3  1  0  0  0  0
 10  5  2  0  0  0  0
  6  5  1  0  0  0  0
  7  6  2  0  0  0  0
 21  7  1  0  0  0  0
  8  7  1  0  0  0  0
 22  8  1  0  0  0  0
  9  8  2  0  0  0  0
 23  9  1  0  0  0  0
 24 10  1  0  0  0  0
 12 11  1  0  0  0  0
 25 12  1  0  0  0  0
 26 12  1  0  0  0  0
 27 12  1  0  0  0  0
 13  2  1  0  0  0  0
 28 13  1  0  0  0  0
 14 13  1  0  0  0  0
 29 14  1  0  0  0  0
 30 14  1  0  0  0  0
 15 14  1  0  0  0  0
 31 15  1  0  0  0  0
 32 15  1  0  0  0  0
 16 15  1  0  0  0  0
 20 16  1  0  0  0  0
 17 16  1  0  0  0  0
 18 17  2  0  0  0  0
 33 18  1  0  0  0  0
 19 18  1  0  0  0  0
 34 20  1  0  0  0  0
 10  9  1  0  0  0  0
 11  6  1  0  0  0  0
 20 19  2  0  0  0  0
M  END
>  <FittedScore>
-25.78

$$$$
