A71EV2A-x5036b_lowest-energy
  FITTED

 37 38     0  0  0  0  0  0  0999 V2000
   10.7835   15.0714   25.4416 O    0  0  0  0  0  0  0  0  0  0  0  0
   10.7052   15.2899   24.2389 C    0  0  0  0  0  0  0  0  0  0  0  0
   11.9441   15.8011   23.4869 C    0  0  0  0  0  0  0  0  0  0  0  0
   11.7128   16.2889   22.0230 C    0  0  0  0  0  0  0  0  0  0  0  0
   10.7751   15.3081   21.2659 C    0  0  0  0  0  0  0  0  0  0  0  0
   10.5317   15.7078   19.8028 C    0  0  0  0  0  0  0  0  0  0  0  0
   10.0011   16.7545   19.4775 O    0  0  0  0  0  0  0  0  0  0  0  0
   10.6988   14.7274   18.8871 N    0  0  0  0  0  0  0  0  0  0  0  0
    9.4339   15.1961   22.0412 C    0  0  0  0  0  0  0  0  0  0  0  0
    9.5815   14.9699   23.5098 N    0  0  0  0  0  0  0  0  0  0  0  0
    8.3898   14.3003   24.1039 C    0  0  0  0  0  0  0  0  0  0  0  0
    8.5058   12.7710   24.2139 C    0  0  0  0  0  0  0  0  0  0  0  0
    9.4504   11.9992   23.5015 C    0  0  0  0  0  0  0  0  0  0  0  0
    9.4515   10.6038   23.6066 C    0  0  0  0  0  0  0  0  0  0  0  0
    8.5207    9.9603   24.4276 C    0  0  0  0  0  0  0  0  0  0  0  0
    7.5849   12.1122   25.0475 C    0  0  0  0  0  0  0  0  0  0  0  0
    7.5964   10.7063   25.1747 C    0  0  0  0  0  0  0  0  0  0  0  0
    6.7332   10.0084   26.0082 O    0  0  0  0  0  0  0  0  0  0  0  0
    5.8160   10.6032   26.9651 C    0  0  0  0  0  0  0  0  0  0  0  0
   12.3788   16.6245   24.0615 H    0  0  0  0  0  0  0  0  0  0  0  0
   12.6905   15.0037   23.4803 H    0  0  0  0  0  0  0  0  0  0  0  0
   11.2807   17.2961   22.0372 H    0  0  0  0  0  0  0  0  0  0  0  0
   12.6725   16.3650   21.5056 H    0  0  0  0  0  0  0  0  0  0  0  0
   11.2564   14.3229   21.2966 H    0  0  0  0  0  0  0  0  0  0  0  0
   10.5454   14.9114   17.9003 H    0  0  0  0  0  0  0  0  0  0  0  0
   10.9013   13.7728   19.1818 H    0  0  0  0  0  0  0  0  0  0  0  0
    8.8445   16.1100   21.9064 H    0  0  0  0  0  0  0  0  0  0  0  0
    8.8594   14.3876   21.5784 H    0  0  0  0  0  0  0  0  0  0  0  0
    8.2024   14.7275   25.0937 H    0  0  0  0  0  0  0  0  0  0  0  0
    7.4824   14.5451   23.5416 H    0  0  0  0  0  0  0  0  0  0  0  0
   10.1916   12.4576   22.8531 H    0  0  0  0  0  0  0  0  0  0  0  0
   10.1771   10.0204   23.0452 H    0  0  0  0  0  0  0  0  0  0  0  0
    8.5277    8.8764   24.4935 H    0  0  0  0  0  0  0  0  0  0  0  0
    6.8548   12.7078   25.5918 H    0  0  0  0  0  0  0  0  0  0  0  0
    5.3165    9.8064   27.5179 H    0  0  0  0  0  0  0  0  0  0  0  0
    5.0633   11.2110   26.4565 H    0  0  0  0  0  0  0  0  0  0  0  0
    6.3748   11.2217   27.6726 H    0  0  0  0  0  0  0  0  0  0  0  0
  9 10  1  0  0  0  0
  5  9  1  0  0  0  0
  6  5  1  0  0  0  0
  4  5  1  0  0  0  0
  3  4  1  0  0  0  0
  2  3  1  0  0  0  0
  1  2  2  0  0  0  0
 20  3  1  0  0  0  0
 21  3  1  0  0  0  0
 22  4  1  0  0  0  0
 23  4  1  0  0  0  0
 24  5  1  0  0  0  0
  7  6  2  0  0  0  0
  8  6  1  0  0  0  0
 25  8  1  0  0  0  0
 26  8  1  0  0  0  0
 27  9  1  0  0  0  0
 28  9  1  0  0  0  0
 11 10  1  0  0  0  0
 29 11  1  0  0  0  0
 30 11  1  0  0  0  0
 12 11  1  0  0  0  0
 13 12  1  0  0  0  0
 31 13  1  0  0  0  0
 14 13  2  0  0  0  0
 32 14  1  0  0  0  0
 15 14  1  0  0  0  0
 33 15  1  0  0  0  0
 16 12  2  0  0  0  0
 34 16  1  0  0  0  0
 17 15  2  0  0  0  0
 18 17  1  0  0  0  0
 19 18  1  0  0  0  0
 35 19  1  0  0  0  0
 36 19  1  0  0  0  0
 37 19  1  0  0  0  0
 10  2  1  0  0  0  0
 17 16  1  0  0  0  0
M  END
>  <FittedScore>
-31.41

$$$$
