A71EV2A-x5036b_best-RMSD
  FITTED

 37 38     0  0  0  0  0  0  0999 V2000
   10.7683   14.9972   25.4580 O    0  0  0  0  0  0  0  0  0  0  0  0
   10.6735   15.2018   24.2534 C    0  0  0  0  0  0  0  0  0  0  0  0
   11.9181   15.6703   23.4761 C    0  0  0  0  0  0  0  0  0  0  0  0
   11.6724   16.1660   22.0188 C    0  0  0  0  0  0  0  0  0  0  0  0
   10.6893   15.2255   21.2773 C    0  0  0  0  0  0  0  0  0  0  0  0
   10.4449   15.6639   19.8306 C    0  0  0  0  0  0  0  0  0  0  0  0
    9.9172   16.7203   19.5254 O    0  0  0  0  0  0  0  0  0  0  0  0
   10.6830   14.7345   18.8831 N    0  0  0  0  0  0  0  0  0  0  0  0
    9.3613   15.1099   22.0746 C    0  0  0  0  0  0  0  0  0  0  0  0
    9.5346   14.8874   23.5422 N    0  0  0  0  0  0  0  0  0  0  0  0
    8.3400   14.2375   24.1582 C    0  0  0  0  0  0  0  0  0  0  0  0
    8.4430   12.7100   24.3056 C    0  0  0  0  0  0  0  0  0  0  0  0
    9.4073   11.9226   23.6333 C    0  0  0  0  0  0  0  0  0  0  0  0
    9.3966   10.5300   23.7525 C    0  0  0  0  0  0  0  0  0  0  0  0
    8.4310    9.9041   24.5480 C    0  0  0  0  0  0  0  0  0  0  0  0
    7.4970   12.0703   25.1231 C    0  0  0  0  0  0  0  0  0  0  0  0
    7.5027   10.6692   25.2699 C    0  0  0  0  0  0  0  0  0  0  0  0
    6.6356    9.9865   26.1133 O    0  0  0  0  0  0  0  0  0  0  0  0
    5.6470   10.5827   26.9948 C    0  0  0  0  0  0  0  0  0  0  0  0
   12.3939   16.4789   24.0346 H    0  0  0  0  0  0  0  0  0  0  0  0
   12.6384   14.8471   23.4471 H    0  0  0  0  0  0  0  0  0  0  0  0
   11.2764   17.1860   22.0389 H    0  0  0  0  0  0  0  0  0  0  0  0
   12.6231   16.2046   21.4809 H    0  0  0  0  0  0  0  0  0  0  0  0
   11.1444   14.2293   21.2764 H    0  0  0  0  0  0  0  0  0  0  0  0
   10.9447   13.7860   19.1442 H    0  0  0  0  0  0  0  0  0  0  0  0
   10.5872   14.9718   17.9014 H    0  0  0  0  0  0  0  0  0  0  0  0
    8.7660   16.0197   21.9453 H    0  0  0  0  0  0  0  0  0  0  0  0
    8.7807   14.2964   21.6225 H    0  0  0  0  0  0  0  0  0  0  0  0
    8.1677   14.6841   25.1417 H    0  0  0  0  0  0  0  0  0  0  0  0
    7.4301   14.4811   23.5968 H    0  0  0  0  0  0  0  0  0  0  0  0
   10.1694   12.3644   22.9997 H    0  0  0  0  0  0  0  0  0  0  0  0
   10.1367    9.9331   23.2250 H    0  0  0  0  0  0  0  0  0  0  0  0
    8.4258    8.8197   24.6316 H    0  0  0  0  0  0  0  0  0  0  0  0
    6.7529   12.6760   25.6355 H    0  0  0  0  0  0  0  0  0  0  0  0
    5.1284    9.7822   27.5266 H    0  0  0  0  0  0  0  0  0  0  0  0
    4.9099   11.1617   26.4298 H    0  0  0  0  0  0  0  0  0  0  0  0
    6.1400   11.2268   27.7277 H    0  0  0  0  0  0  0  0  0  0  0  0
  9 10  1  0  0  0  0
  5  9  1  0  0  0  0
  6  5  1  0  0  0  0
  4  5  1  0  0  0  0
  3  4  1  0  0  0  0
  2  3  1  0  0  0  0
  1  2  2  0  0  0  0
 20  3  1  0  0  0  0
 21  3  1  0  0  0  0
 22  4  1  0  0  0  0
 23  4  1  0  0  0  0
 24  5  1  0  0  0  0
  7  6  2  0  0  0  0
  8  6  1  0  0  0  0
 25  8  1  0  0  0  0
 26  8  1  0  0  0  0
 27  9  1  0  0  0  0
 28  9  1  0  0  0  0
 11 10  1  0  0  0  0
 29 11  1  0  0  0  0
 30 11  1  0  0  0  0
 12 11  1  0  0  0  0
 13 12  1  0  0  0  0
 31 13  1  0  0  0  0
 14 13  2  0  0  0  0
 32 14  1  0  0  0  0
 15 14  1  0  0  0  0
 33 15  1  0  0  0  0
 16 12  2  0  0  0  0
 34 16  1  0  0  0  0
 17 15  2  0  0  0  0
 18 17  1  0  0  0  0
 19 18  1  0  0  0  0
 35 19  1  0  0  0  0
 36 19  1  0  0  0  0
 37 19  1  0  0  0  0
 10  2  1  0  0  0  0
 17 16  1  0  0  0  0
M  END
>  <FittedScore>
-31.44

$$$$
