A71EV2A-x3936a_lowest-energy
  FITTED

 44 45     0  0  0  0  0  0  0999 V2000
    9.5259   16.3599   19.3756 O    0  0  0  0  0  0  0  0  0  0  0  0
   10.1047   15.3481   19.7226 C    0  0  0  0  0  0  0  0  0  0  0  0
   10.6795   14.5482   18.8121 N    0  0  0  0  0  0  0  0  0  0  0  0
   10.2203   14.8520   21.1606 C    0  0  0  0  0  0  0  0  0  0  0  0
   11.2396   15.7165   21.9501 C    0  0  0  0  0  0  0  0  0  0  0  0
   11.3112   15.2503   23.4175 C    0  0  0  0  0  0  0  0  0  0  0  0
    9.8977   15.1571   24.0423 C    0  0  0  0  0  0  0  0  0  0  0  0
    8.8394   14.7343   21.8798 C    0  0  0  0  0  0  0  0  0  0  0  0
    8.9465   14.2534   23.3040 N    0  0  0  0  0  0  0  0  0  0  0  0
    8.1437   13.2458   23.8296 C    0  0  0  0  0  0  0  0  0  0  0  0
    7.1858   12.8557   23.1795 O    0  0  0  0  0  0  0  0  0  0  0  0
    8.3412   12.6501   25.2711 C    0  0  0  0  0  0  0  0  0  0  0  0
    7.4859   13.4548   26.3114 C    0  0  0  0  0  0  0  0  0  0  0  0
    7.7165   14.8884   26.2215 O    0  0  0  0  0  0  0  0  0  0  0  0
    7.0959   15.7494   27.2031 C    0  0  0  0  0  0  0  0  0  0  0  0
    9.7381   12.6574   25.7374 O    0  0  0  0  0  0  0  0  0  0  0  0
   10.7525   11.8642   25.0438 C    0  0  0  0  0  0  0  0  0  0  0  0
   10.3460   10.3730   24.9754 C    0  0  0  0  0  0  0  0  0  0  0  0
    8.8608   10.1775   24.5844 C    0  0  0  0  0  0  0  0  0  0  0  0
    7.9138   11.1300   25.3682 C    0  0  0  0  0  0  0  0  0  0  0  0
   11.0125   13.6261   19.0871 H    0  0  0  0  0  0  0  0  0  0  0  0
   10.6413   14.7885   17.8339 H    0  0  0  0  0  0  0  0  0  0  0  0
   10.6248   13.8294   21.1547 H    0  0  0  0  0  0  0  0  0  0  0  0
   12.2321   15.6297   21.4969 H    0  0  0  0  0  0  0  0  0  0  0  0
   10.9599   16.7743   21.9146 H    0  0  0  0  0  0  0  0  0  0  0  0
   11.8224   14.2883   23.4762 H    0  0  0  0  0  0  0  0  0  0  0  0
   11.9140   15.9561   23.9929 H    0  0  0  0  0  0  0  0  0  0  0  0
   10.0365   14.9352   25.0907 H    0  0  0  0  0  0  0  0  0  0  0  0
    9.4577   16.1585   24.0697 H    0  0  0  0  0  0  0  0  0  0  0  0
    8.2252   14.0705   21.2676 H    0  0  0  0  0  0  0  0  0  0  0  0
    8.3206   15.6982   21.8731 H    0  0  0  0  0  0  0  0  0  0  0  0
    6.4203   13.2705   26.1435 H    0  0  0  0  0  0  0  0  0  0  0  0
    7.7261   13.1239   27.3280 H    0  0  0  0  0  0  0  0  0  0  0  0
    7.2958   16.7892   26.9385 H    0  0  0  0  0  0  0  0  0  0  0  0
    7.5119   15.5471   28.1923 H    0  0  0  0  0  0  0  0  0  0  0  0
    6.0144   15.5913   27.2215 H    0  0  0  0  0  0  0  0  0  0  0  0
   10.9013   12.2402   24.0306 H    0  0  0  0  0  0  0  0  0  0  0  0
   11.6979   11.9743   25.5804 H    0  0  0  0  0  0  0  0  0  0  0  0
   10.9852    9.8570   24.2541 H    0  0  0  0  0  0  0  0  0  0  0  0
   10.5307    9.9047   25.9466 H    0  0  0  0  0  0  0  0  0  0  0  0
    8.7438   10.3400   23.5103 H    0  0  0  0  0  0  0  0  0  0  0  0
    8.5703    9.1421   24.7774 H    0  0  0  0  0  0  0  0  0  0  0  0
    6.8885   10.9842   25.0187 H    0  0  0  0  0  0  0  0  0  0  0  0
    7.9123   10.8076   26.4153 H    0  0  0  0  0  0  0  0  0  0  0  0
  9 10  1  0  0  0  0
  7  9  1  0  0  0  0
  6  7  1  0  0  0  0
  5  6  1  0  0  0  0
  4  5  1  0  0  0  0
  2  4  1  0  0  0  0
  1  2  2  0  0  0  0
  3  2  1  0  0  0  0
 21  3  1  0  0  0  0
 22  3  1  0  0  0  0
 23  4  1  0  0  0  0
 24  5  1  0  0  0  0
 25  5  1  0  0  0  0
 26  6  1  0  0  0  0
 27  6  1  0  0  0  0
 28  7  1  0  0  0  0
 29  7  1  0  0  0  0
  8  4  1  0  0  0  0
 30  8  1  0  0  0  0
 31  8  1  0  0  0  0
 11 10  2  0  0  0  0
 12 10  1  0  0  0  0
 13 12  1  0  0  0  0
 20 12  1  0  0  0  0
 32 13  1  0  0  0  0
 33 13  1  0  0  0  0
 14 13  1  0  0  0  0
 15 14  1  0  0  0  0
 34 15  1  0  0  0  0
 35 15  1  0  0  0  0
 36 15  1  0  0  0  0
 16 12  1  0  0  0  0
 17 16  1  0  0  0  0
 37 17  1  0  0  0  0
 38 17  1  0  0  0  0
 18 17  1  0  0  0  0
 39 18  1  0  0  0  0
 40 18  1  0  0  0  0
 19 18  1  0  0  0  0
 41 19  1  0  0  0  0
 42 19  1  0  0  0  0
 43 20  1  0  0  0  0
 44 20  1  0  0  0  0
  9  8  1  0  0  0  0
 20 19  1  0  0  0  0
M  END
>  <FittedScore>
-33.69

$$$$
