A71EV2A-x3936a_best-RMSD
  FITTED

 44 45     0  0  0  0  0  0  0999 V2000
    9.4923   16.3304   19.3197 O    0  0  0  0  0  0  0  0  0  0  0  0
   10.1475   15.3748   19.6937 C    0  0  0  0  0  0  0  0  0  0  0  0
   10.7271   14.5744   18.7881 N    0  0  0  0  0  0  0  0  0  0  0  0
   10.2288   14.8856   21.1363 C    0  0  0  0  0  0  0  0  0  0  0  0
   11.3324   15.6121   21.9454 C    0  0  0  0  0  0  0  0  0  0  0  0
   11.3799   15.0398   23.3839 C    0  0  0  0  0  0  0  0  0  0  0  0
    9.9792   14.9553   24.0627 C    0  0  0  0  0  0  0  0  0  0  0  0
    8.8703   14.9971   21.8765 C    0  0  0  0  0  0  0  0  0  0  0  0
    8.8811   14.3539   23.2308 N    0  0  0  0  0  0  0  0  0  0  0  0
    7.9317   13.4102   23.6024 C    0  0  0  0  0  0  0  0  0  0  0  0
    7.2159   12.9532   22.7304 O    0  0  0  0  0  0  0  0  0  0  0  0
    7.7029   12.8728   25.0559 C    0  0  0  0  0  0  0  0  0  0  0  0
    8.8443   11.8675   25.4594 C    0  0  0  0  0  0  0  0  0  0  0  0
    9.0571   10.9026   24.3898 O    0  0  0  0  0  0  0  0  0  0  0  0
   10.0574    9.8861   24.5968 C    0  0  0  0  0  0  0  0  0  0  0  0
    6.4301   12.1056   25.0423 O    0  0  0  0  0  0  0  0  0  0  0  0
    5.7854   11.6281   26.2557 C    0  0  0  0  0  0  0  0  0  0  0  0
    5.5380   12.8063   27.2168 C    0  0  0  0  0  0  0  0  0  0  0  0
    6.8138   13.6567   27.4191 C    0  0  0  0  0  0  0  0  0  0  0  0
    7.4900   14.0548   26.0810 C    0  0  0  0  0  0  0  0  0  0  0  0
   10.6982   14.8244   17.8089 H    0  0  0  0  0  0  0  0  0  0  0  0
   11.0481   13.6437   19.0584 H    0  0  0  0  0  0  0  0  0  0  0  0
   10.4881   13.8171   21.1362 H    0  0  0  0  0  0  0  0  0  0  0  0
   12.3066   15.4687   21.4706 H    0  0  0  0  0  0  0  0  0  0  0  0
   11.1541   16.6908   21.9728 H    0  0  0  0  0  0  0  0  0  0  0  0
   11.8259   14.0387   23.3595 H    0  0  0  0  0  0  0  0  0  0  0  0
   12.0406   15.6598   23.9992 H    0  0  0  0  0  0  0  0  0  0  0  0
   10.1547   14.4016   24.9730 H    0  0  0  0  0  0  0  0  0  0  0  0
    9.6670   15.9577   24.3696 H    0  0  0  0  0  0  0  0  0  0  0  0
    8.1072   14.5960   21.2086 H    0  0  0  0  0  0  0  0  0  0  0  0
    8.5866   16.0447   21.9983 H    0  0  0  0  0  0  0  0  0  0  0  0
    9.7829   12.3758   25.6850 H    0  0  0  0  0  0  0  0  0  0  0  0
    8.5895   11.3198   26.3666 H    0  0  0  0  0  0  0  0  0  0  0  0
   10.1756    9.3233   23.6701 H    0  0  0  0  0  0  0  0  0  0  0  0
    9.7382    9.2069   25.3890 H    0  0  0  0  0  0  0  0  0  0  0  0
   11.0163   10.3426   24.8621 H    0  0  0  0  0  0  0  0  0  0  0  0
    4.8357   11.1754   25.9648 H    0  0  0  0  0  0  0  0  0  0  0  0
    6.3791   10.8442   26.7283 H    0  0  0  0  0  0  0  0  0  0  0  0
    4.7346   13.4329   26.8152 H    0  0  0  0  0  0  0  0  0  0  0  0
    5.1948   12.4154   28.1810 H    0  0  0  0  0  0  0  0  0  0  0  0
    6.5579   14.5630   27.9740 H    0  0  0  0  0  0  0  0  0  0  0  0
    7.5258   13.1010   28.0341 H    0  0  0  0  0  0  0  0  0  0  0  0
    6.8863   14.8363   25.6066 H    0  0  0  0  0  0  0  0  0  0  0  0
    8.4292   14.5260   26.3635 H    0  0  0  0  0  0  0  0  0  0  0  0
  9 10  1  0  0  0  0
  7  9  1  0  0  0  0
  6  7  1  0  0  0  0
  5  6  1  0  0  0  0
  4  5  1  0  0  0  0
  2  4  1  0  0  0  0
  1  2  2  0  0  0  0
  3  2  1  0  0  0  0
 21  3  1  0  0  0  0
 22  3  1  0  0  0  0
 23  4  1  0  0  0  0
 24  5  1  0  0  0  0
 25  5  1  0  0  0  0
 26  6  1  0  0  0  0
 27  6  1  0  0  0  0
 28  7  1  0  0  0  0
 29  7  1  0  0  0  0
  8  4  1  0  0  0  0
 30  8  1  0  0  0  0
 31  8  1  0  0  0  0
 11 10  2  0  0  0  0
 12 10  1  0  0  0  0
 13 12  1  0  0  0  0
 20 12  1  0  0  0  0
 32 13  1  0  0  0  0
 33 13  1  0  0  0  0
 14 13  1  0  0  0  0
 15 14  1  0  0  0  0
 34 15  1  0  0  0  0
 35 15  1  0  0  0  0
 36 15  1  0  0  0  0
 16 12  1  0  0  0  0
 17 16  1  0  0  0  0
 37 17  1  0  0  0  0
 38 17  1  0  0  0  0
 18 17  1  0  0  0  0
 39 18  1  0  0  0  0
 40 18  1  0  0  0  0
 19 18  1  0  0  0  0
 41 19  1  0  0  0  0
 42 19  1  0  0  0  0
 43 20  1  0  0  0  0
 44 20  1  0  0  0  0
  9  8  1  0  0  0  0
 20 19  1  0  0  0  0
M  END
>  <FittedScore>
-33.81

$$$$
