A71EV2A-x3436a_best-RMSD
  FITTED

 27 28     0  0  0  0  0  0  0999 V2000
    9.4594   14.1850   24.6915 O    0  0  0  0  0  0  0  0  0  0  0  0
    9.7660   13.3046   23.9096 C    0  0  0  0  0  0  0  0  0  0  0  0
    9.2730   11.8976   24.0420 C    0  0  0  0  0  0  0  0  0  0  0  0
    8.3608   11.4717   24.9658 C    0  0  0  0  0  0  0  0  0  0  0  0
    8.1915   10.0317   24.8643 N    0  0  0  0  0  0  0  0  0  0  0  0
    9.7177   10.7461   23.2609 N    0  0  0  0  0  0  0  0  0  0  0  0
    9.0352    9.7624   23.8591 N    0  0  0  0  0  0  0  0  0  0  0  0
    9.2104    8.3743   23.3982 C    0  0  0  0  0  0  0  0  0  0  0  0
   10.7101   13.4480   22.9478 N    0  0  0  0  0  0  0  0  0  0  0  0
   11.6628   14.5652   22.8330 C    0  0  0  0  0  0  0  0  0  0  0  0
   11.8530   15.0400   21.3874 C    0  0  0  0  0  0  0  0  0  0  0  0
   10.5932   15.4763   20.6738 C    0  0  0  0  0  0  0  0  0  0  0  0
    9.5149   16.2628   21.2823 N    0  0  0  0  0  0  0  0  0  0  0  0
    8.6783   16.4787   20.1024 C    0  0  0  0  0  0  0  0  0  0  0  0
    9.1696   15.8684   18.9757 O    0  0  0  0  0  0  0  0  0  0  0  0
   10.3472   15.2723   19.3321 C    0  0  0  0  0  0  0  0  0  0  0  0
    7.8367   12.0801   25.6991 H    0  0  0  0  0  0  0  0  0  0  0  0
    9.8282    8.3090   22.4945 H    0  0  0  0  0  0  0  0  0  0  0  0
    8.2425    7.9200   23.1709 H    0  0  0  0  0  0  0  0  0  0  0  0
    9.6955    7.7824   24.1794 H    0  0  0  0  0  0  0  0  0  0  0  0
   10.8575   12.6701   22.3080 H    0  0  0  0  0  0  0  0  0  0  0  0
   12.6231   14.2265   23.2303 H    0  0  0  0  0  0  0  0  0  0  0  0
   11.3547   15.4155   23.4453 H    0  0  0  0  0  0  0  0  0  0  0  0
   12.3338   14.2388   20.8176 H    0  0  0  0  0  0  0  0  0  0  0  0
   12.5527   15.8792   21.3803 H    0  0  0  0  0  0  0  0  0  0  0  0
    7.7616   17.0644   20.1448 H    0  0  0  0  0  0  0  0  0  0  0  0
   11.0009   14.7479   18.6392 H    0  0  0  0  0  0  0  0  0  0  0  0
  2  9  1  0  0  0  0
  3  2  1  0  0  0  0
  4  3  1  0  0  0  0
  1  2  2  0  0  0  0
 17  4  1  0  0  0  0
  5  4  2  0  0  0  0
  6  3  2  0  0  0  0
  7  5  1  0  0  0  0
  8  7  1  0  0  0  0
 18  8  1  0  0  0  0
 19  8  1  0  0  0  0
 20  8  1  0  0  0  0
 21  9  1  0  0  0  0
 10  9  1  0  0  0  0
 22 10  1  0  0  0  0
 23 10  1  0  0  0  0
 11 10  1  0  0  0  0
 24 11  1  0  0  0  0
 25 11  1  0  0  0  0
 12 11  1  0  0  0  0
 16 12  2  0  0  0  0
 13 12  1  0  0  0  0
 14 13  2  0  0  0  0
 26 14  1  0  0  0  0
 15 14  1  0  0  0  0
 27 16  1  0  0  0  0
  7  6  1  0  0  0  0
 16 15  1  0  0  0  0
M  END
>  <FittedScore>
-22.08

$$$$
