A71EV2A-x5091a_best-RMSD
  FITTED

 38 39     0  0  0  0  0  0  0999 V2000
    9.5945   16.5016   19.2709 O    0  0  0  0  0  0  0  0  0  0  0  0
   10.4500   15.6772   19.5411 C    0  0  0  0  0  0  0  0  0  0  0  0
   11.2816   15.2093   18.5895 N    0  0  0  0  0  0  0  0  0  0  0  0
   10.6941   15.1030   20.9355 C    0  0  0  0  0  0  0  0  0  0  0  0
   11.5795   15.9513   21.8545 C    0  0  0  0  0  0  0  0  0  0  0  0
   11.2364   15.4192   23.2573 C    0  0  0  0  0  0  0  0  0  0  0  0
    9.4394   14.8516   21.7916 C    0  0  0  0  0  0  0  0  0  0  0  0
    9.8843   14.8038   23.2098 N    0  0  0  0  0  0  0  0  0  0  0  0
    9.3180   14.0822   24.2445 C    0  0  0  0  0  0  0  0  0  0  0  0
   10.0012   13.7260   25.1898 O    0  0  0  0  0  0  0  0  0  0  0  0
    8.0330   13.5929   24.1177 N    0  0  0  0  0  0  0  0  0  0  0  0
    6.8961   14.4490   23.6618 C    0  0  0  0  0  0  0  0  0  0  0  0
    7.7401   12.2087   24.4392 C    0  0  0  0  0  0  0  0  0  0  0  0
    6.6902   11.8425   25.3111 C    0  0  0  0  0  0  0  0  0  0  0  0
    6.4341   10.4932   25.5823 C    0  0  0  0  0  0  0  0  0  0  0  0
    7.2227    9.4991   24.9918 C    0  0  0  0  0  0  0  0  0  0  0  0
    8.5372   11.1978   23.8631 C    0  0  0  0  0  0  0  0  0  0  0  0
    8.2891    9.8441   24.1438 C    0  0  0  0  0  0  0  0  0  0  0  0
    9.1820    8.7606   23.5589 C    0  0  0  0  0  0  0  0  0  0  0  0
   12.0074   14.5409   18.8184 H    0  0  0  0  0  0  0  0  0  0  0  0
   11.0921   15.4171   17.6206 H    0  0  0  0  0  0  0  0  0  0  0  0
   11.1860   14.1255   20.8273 H    0  0  0  0  0  0  0  0  0  0  0  0
   12.6411   15.8239   21.6239 H    0  0  0  0  0  0  0  0  0  0  0  0
   11.3306   17.0151   21.7754 H    0  0  0  0  0  0  0  0  0  0  0  0
   11.9814   14.6795   23.5644 H    0  0  0  0  0  0  0  0  0  0  0  0
   11.2463   16.2335   23.9872 H    0  0  0  0  0  0  0  0  0  0  0  0
    8.9706   13.9123   21.4829 H    0  0  0  0  0  0  0  0  0  0  0  0
    8.7087   15.6574   21.6704 H    0  0  0  0  0  0  0  0  0  0  0  0
    7.1724   15.5081   23.6522 H    0  0  0  0  0  0  0  0  0  0  0  0
    6.0310   14.3748   24.3210 H    0  0  0  0  0  0  0  0  0  0  0  0
    6.5776   14.1664   22.6574 H    0  0  0  0  0  0  0  0  0  0  0  0
    6.0757   12.5957   25.7958 H    0  0  0  0  0  0  0  0  0  0  0  0
    5.6223   10.2172   26.2518 H    0  0  0  0  0  0  0  0  0  0  0  0
    7.0061    8.4526   25.2064 H    0  0  0  0  0  0  0  0  0  0  0  0
    9.3601   11.4707   23.2025 H    0  0  0  0  0  0  0  0  0  0  0  0
    8.5909    8.0175   23.0204 H    0  0  0  0  0  0  0  0  0  0  0  0
    9.7221    8.2529   24.3617 H    0  0  0  0  0  0  0  0  0  0  0  0
    9.9230    9.1661   22.8667 H    0  0  0  0  0  0  0  0  0  0  0  0
  9 11  1  0  0  0  0
  8  9  1  0  0  0  0
  6  8  1  0  0  0  0
  5  6  1  0  0  0  0
  4  5  1  0  0  0  0
  2  4  1  0  0  0  0
  1  2  2  0  0  0  0
  3  2  1  0  0  0  0
 20  3  1  0  0  0  0
 21  3  1  0  0  0  0
 22  4  1  0  0  0  0
 23  5  1  0  0  0  0
 24  5  1  0  0  0  0
 25  6  1  0  0  0  0
 26  6  1  0  0  0  0
  7  4  1  0  0  0  0
 27  7  1  0  0  0  0
 28  7  1  0  0  0  0
 10  9  2  0  0  0  0
 12 11  1  0  0  0  0
 29 12  1  0  0  0  0
 30 12  1  0  0  0  0
 31 12  1  0  0  0  0
 13 11  1  0  0  0  0
 14 13  1  0  0  0  0
 32 14  1  0  0  0  0
 15 14  2  0  0  0  0
 33 15  1  0  0  0  0
 16 15  1  0  0  0  0
 34 16  1  0  0  0  0
 17 13  2  0  0  0  0
 35 17  1  0  0  0  0
 18 16  2  0  0  0  0
 19 18  1  0  0  0  0
 36 19  1  0  0  0  0
 37 19  1  0  0  0  0
 38 19  1  0  0  0  0
  8  7  1  0  0  0  0
 18 17  1  0  0  0  0
M  END
>  <FittedScore>
-33.22

$$$$
