A71EV2A-x5091a_lowest-energy
  FITTED

 38 39     0  0  0  0  0  0  0999 V2000
    9.6205   16.5058   19.3176 O    0  0  0  0  0  0  0  0  0  0  0  0
   10.5017   15.7047   19.5718 C    0  0  0  0  0  0  0  0  0  0  0  0
   11.2581   15.2020   18.5734 N    0  0  0  0  0  0  0  0  0  0  0  0
   10.8011   15.1441   20.9655 C    0  0  0  0  0  0  0  0  0  0  0  0
   11.7133   15.9992   21.8534 C    0  0  0  0  0  0  0  0  0  0  0  0
   11.4075   15.4819   23.2733 C    0  0  0  0  0  0  0  0  0  0  0  0
    9.5730   14.9066   21.8619 C    0  0  0  0  0  0  0  0  0  0  0  0
   10.0710   14.8385   23.2587 N    0  0  0  0  0  0  0  0  0  0  0  0
    9.5519   14.0961   24.3000 C    0  0  0  0  0  0  0  0  0  0  0  0
   10.2777   13.6826   25.1878 O    0  0  0  0  0  0  0  0  0  0  0  0
    8.2573   13.6324   24.2063 N    0  0  0  0  0  0  0  0  0  0  0  0
    7.1356   14.5352   23.8149 C    0  0  0  0  0  0  0  0  0  0  0  0
    7.9462   12.2344   24.4595 C    0  0  0  0  0  0  0  0  0  0  0  0
    6.8629   11.8445   25.2760 C    0  0  0  0  0  0  0  0  0  0  0  0
    6.5803   10.4879   25.4882 C    0  0  0  0  0  0  0  0  0  0  0  0
    7.3799    9.5048   24.9009 C    0  0  0  0  0  0  0  0  0  0  0  0
    8.7470   11.2281   23.8725 C    0  0  0  0  0  0  0  0  0  0  0  0
    8.4820    9.8697   24.1081 C    0  0  0  0  0  0  0  0  0  0  0  0
    9.3766    8.8027   23.5048 C    0  0  0  0  0  0  0  0  0  0  0  0
   11.0031   15.3983   17.6131 H    0  0  0  0  0  0  0  0  0  0  0  0
   12.0118   14.5460   18.7600 H    0  0  0  0  0  0  0  0  0  0  0  0
   11.2830   14.1652   20.8488 H    0  0  0  0  0  0  0  0  0  0  0  0
   12.7700   15.8713   21.5952 H    0  0  0  0  0  0  0  0  0  0  0  0
   11.4614   17.0603   21.7658 H    0  0  0  0  0  0  0  0  0  0  0  0
   12.1789   14.7654   23.5751 H    0  0  0  0  0  0  0  0  0  0  0  0
   11.4154   16.3058   23.9945 H    0  0  0  0  0  0  0  0  0  0  0  0
    9.0595   13.9907   21.5538 H    0  0  0  0  0  0  0  0  0  0  0  0
    8.8706   15.7403   21.7836 H    0  0  0  0  0  0  0  0  0  0  0  0
    6.4493   14.6901   24.6475 H    0  0  0  0  0  0  0  0  0  0  0  0
    6.5851   14.1059   22.9752 H    0  0  0  0  0  0  0  0  0  0  0  0
    7.4773   15.5297   23.5235 H    0  0  0  0  0  0  0  0  0  0  0  0
    6.2290   12.5799   25.7625 H    0  0  0  0  0  0  0  0  0  0  0  0
    5.7380   10.1996   26.1094 H    0  0  0  0  0  0  0  0  0  0  0  0
    7.1484    8.4547   25.0779 H    0  0  0  0  0  0  0  0  0  0  0  0
    9.5806   11.4973   23.2242 H    0  0  0  0  0  0  0  0  0  0  0  0
   10.3993    9.1678   23.3758 H    0  0  0  0  0  0  0  0  0  0  0  0
    9.0000    8.5038   22.5237 H    0  0  0  0  0  0  0  0  0  0  0  0
    9.4294    7.9171   24.1429 H    0  0  0  0  0  0  0  0  0  0  0  0
  9 11  1  0  0  0  0
  8  9  1  0  0  0  0
  6  8  1  0  0  0  0
  5  6  1  0  0  0  0
  4  5  1  0  0  0  0
  2  4  1  0  0  0  0
  1  2  2  0  0  0  0
  3  2  1  0  0  0  0
 20  3  1  0  0  0  0
 21  3  1  0  0  0  0
 22  4  1  0  0  0  0
 23  5  1  0  0  0  0
 24  5  1  0  0  0  0
 25  6  1  0  0  0  0
 26  6  1  0  0  0  0
  7  4  1  0  0  0  0
 27  7  1  0  0  0  0
 28  7  1  0  0  0  0
 10  9  2  0  0  0  0
 12 11  1  0  0  0  0
 29 12  1  0  0  0  0
 30 12  1  0  0  0  0
 31 12  1  0  0  0  0
 13 11  1  0  0  0  0
 14 13  1  0  0  0  0
 32 14  1  0  0  0  0
 15 14  2  0  0  0  0
 33 15  1  0  0  0  0
 16 15  1  0  0  0  0
 34 16  1  0  0  0  0
 17 13  2  0  0  0  0
 35 17  1  0  0  0  0
 18 16  2  0  0  0  0
 19 18  1  0  0  0  0
 36 19  1  0  0  0  0
 37 19  1  0  0  0  0
 38 19  1  0  0  0  0
  8  7  1  0  0  0  0
 18 17  1  0  0  0  0
M  END
>  <FittedScore>
-33.41

$$$$
