A71EV2A-x3207a_best-RMSD
  FITTED

 37 38     0  0  0  0  0  0  0999 V2000
    7.5337   13.0881   22.7363 O    0  0  0  0  0  0  0  0  0  0  0  0
    8.3295   13.6952   23.4384 C    0  0  0  0  0  0  0  0  0  0  0  0
    8.9371   14.8457   22.9971 N    0  0  0  0  0  0  0  0  0  0  0  0
    9.7692   15.7931   23.8193 C    0  0  0  0  0  0  0  0  0  0  0  0
   11.2379   15.8978   23.3154 C    0  0  0  0  0  0  0  0  0  0  0  0
   11.2860   16.2833   21.8139 C    0  0  0  0  0  0  0  0  0  0  0  0
    8.9220   15.2797   21.5679 C    0  0  0  0  0  0  0  0  0  0  0  0
   10.3702   15.3371   20.9841 C    0  0  0  0  0  0  0  0  0  0  0  0
   10.3747   15.7266   19.5118 C    0  0  0  0  0  0  0  0  0  0  0  0
    9.9402   16.7714   19.0763 O    0  0  0  0  0  0  0  0  0  0  0  0
   10.8112   14.7795   18.6703 N    0  0  0  0  0  0  0  0  0  0  0  0
    8.7792   13.1118   24.7841 C    0  0  0  0  0  0  0  0  0  0  0  0
    8.5480   11.6199   24.8655 C    0  0  0  0  0  0  0  0  0  0  0  0
    7.4771   11.1148   25.6111 C    0  0  0  0  0  0  0  0  0  0  0  0
    7.2375    9.7349   25.5868 C    0  0  0  0  0  0  0  0  0  0  0  0
    6.1711    9.2241   26.2638 N    0  0  0  0  0  0  0  0  0  0  0  0
    8.0230    8.8803   24.8805 N    0  0  0  0  0  0  0  0  0  0  0  0
    9.0527    9.3756   24.1385 C    0  0  0  0  0  0  0  0  0  0  0  0
    9.3403   10.7419   24.1015 C    0  0  0  0  0  0  0  0  0  0  0  0
    9.3085   16.7848   23.7750 H    0  0  0  0  0  0  0  0  0  0  0  0
    9.7816   15.5603   24.8861 H    0  0  0  0  0  0  0  0  0  0  0  0
   11.7826   16.6405   23.9058 H    0  0  0  0  0  0  0  0  0  0  0  0
   11.7438   14.9405   23.4614 H    0  0  0  0  0  0  0  0  0  0  0  0
   10.9715   17.3267   21.6962 H    0  0  0  0  0  0  0  0  0  0  0  0
   12.3130   16.2218   21.4511 H    0  0  0  0  0  0  0  0  0  0  0  0
    8.4296   16.2545   21.5009 H    0  0  0  0  0  0  0  0  0  0  0  0
    8.3265   14.6206   20.9325 H    0  0  0  0  0  0  0  0  0  0  0  0
   10.7832   14.3270   21.0995 H    0  0  0  0  0  0  0  0  0  0  0  0
   10.8371   14.9749   17.6758 H    0  0  0  0  0  0  0  0  0  0  0  0
   11.0368   13.8442   19.0080 H    0  0  0  0  0  0  0  0  0  0  0  0
    8.2498   13.6309   25.5927 H    0  0  0  0  0  0  0  0  0  0  0  0
    9.8473   13.2649   24.9471 H    0  0  0  0  0  0  0  0  0  0  0  0
    6.8350   11.7882   26.1791 H    0  0  0  0  0  0  0  0  0  0  0  0
    5.9664    8.2206   26.2300 H    0  0  0  0  0  0  0  0  0  0  0  0
    5.5868    9.8566   26.7952 H    0  0  0  0  0  0  0  0  0  0  0  0
    9.6584    8.6863   23.5602 H    0  0  0  0  0  0  0  0  0  0  0  0
   10.1554   11.1092   23.4759 H    0  0  0  0  0  0  0  0  0  0  0  0
  2  1  2  0  0  0  0
  3  2  1  0  0  0  0
  4  3  1  0  0  0  0
 20  4  1  0  0  0  0
 21  4  1  0  0  0  0
  5  4  1  0  0  0  0
 22  5  1  0  0  0  0
 23  5  1  0  0  0  0
  6  5  1  0  0  0  0
 24  6  1  0  0  0  0
 25  6  1  0  0  0  0
  7  3  1  0  0  0  0
 26  7  1  0  0  0  0
 27  7  1  0  0  0  0
  8  6  1  0  0  0  0
  9  8  1  0  0  0  0
 28  8  1  0  0  0  0
 10  9  2  0  0  0  0
 11  9  1  0  0  0  0
 29 11  1  0  0  0  0
 30 11  1  0  0  0  0
 12  2  1  0  0  0  0
 31 12  1  0  0  0  0
 32 12  1  0  0  0  0
 13 12  1  0  0  0  0
 19 13  2  0  0  0  0
 14 13  1  0  0  0  0
 33 14  1  0  0  0  0
 15 14  2  0  0  0  0
 16 15  1  0  0  0  0
 34 16  1  0  0  0  0
 35 16  1  0  0  0  0
 17 15  1  0  0  0  0
 18 17  2  0  0  0  0
 36 18  1  0  0  0  0
 37 19  1  0  0  0  0
  8  7  1  0  0  0  0
 19 18  1  0  0  0  0
M  END
>  <FittedScore>
-33.45

$$$$
