A71EV2A-x3207a_lowest-energy
  FITTED

 37 38     0  0  0  0  0  0  0999 V2000
    7.6266   13.1526   22.6853 O    0  0  0  0  0  0  0  0  0  0  0  0
    8.4243   13.7530   23.3934 C    0  0  0  0  0  0  0  0  0  0  0  0
    8.9810   14.9454   22.9958 N    0  0  0  0  0  0  0  0  0  0  0  0
    9.8958   15.8258   23.8052 C    0  0  0  0  0  0  0  0  0  0  0  0
   11.3488   15.8554   23.2515 C    0  0  0  0  0  0  0  0  0  0  0  0
   11.3834   16.2096   21.7407 C    0  0  0  0  0  0  0  0  0  0  0  0
    8.9408   15.4121   21.5778 C    0  0  0  0  0  0  0  0  0  0  0  0
   10.3670   15.3351   20.9466 C    0  0  0  0  0  0  0  0  0  0  0  0
   10.3570   15.7060   19.4728 C    0  0  0  0  0  0  0  0  0  0  0  0
    9.8948   16.7363   19.0315 O    0  0  0  0  0  0  0  0  0  0  0  0
   10.8007   14.7542   18.6368 N    0  0  0  0  0  0  0  0  0  0  0  0
    8.9927   13.0951   24.6579 C    0  0  0  0  0  0  0  0  0  0  0  0
    8.7262   11.6070   24.7213 C    0  0  0  0  0  0  0  0  0  0  0  0
    7.6845   11.1085   25.5156 C    0  0  0  0  0  0  0  0  0  0  0  0
    7.4412    9.7309   25.5145 C    0  0  0  0  0  0  0  0  0  0  0  0
    6.4270    9.2420   26.2806 N    0  0  0  0  0  0  0  0  0  0  0  0
    8.1775    8.8638   24.7639 N    0  0  0  0  0  0  0  0  0  0  0  0
    9.1717    9.3496   23.9705 C    0  0  0  0  0  0  0  0  0  0  0  0
    9.4698   10.7159   23.9261 C    0  0  0  0  0  0  0  0  0  0  0  0
    9.4945   16.8441   23.8197 H    0  0  0  0  0  0  0  0  0  0  0  0
    9.9371   15.5525   24.8591 H    0  0  0  0  0  0  0  0  0  0  0  0
   11.9416   16.5836   23.8094 H    0  0  0  0  0  0  0  0  0  0  0  0
   11.8166   14.8787   23.4099 H    0  0  0  0  0  0  0  0  0  0  0  0
   11.1611   17.2726   21.6014 H    0  0  0  0  0  0  0  0  0  0  0  0
   12.3940   16.0440   21.3569 H    0  0  0  0  0  0  0  0  0  0  0  0
    8.5628   16.4410   21.5434 H    0  0  0  0  0  0  0  0  0  0  0  0
    8.2432   14.8441   20.9567 H    0  0  0  0  0  0  0  0  0  0  0  0
   10.7051   14.2954   21.0517 H    0  0  0  0  0  0  0  0  0  0  0  0
   11.0348   13.8168   18.9637 H    0  0  0  0  0  0  0  0  0  0  0  0
   10.8059   14.9451   17.6441 H    0  0  0  0  0  0  0  0  0  0  0  0
    8.5880   13.5944   25.5441 H    0  0  0  0  0  0  0  0  0  0  0  0
   10.0792   13.2196   24.6980 H    0  0  0  0  0  0  0  0  0  0  0  0
    7.0737   11.7807   26.1147 H    0  0  0  0  0  0  0  0  0  0  0  0
    6.2869    8.2363   26.3367 H    0  0  0  0  0  0  0  0  0  0  0  0
    5.8282    9.8802   26.7925 H    0  0  0  0  0  0  0  0  0  0  0  0
    9.7536    8.6614   23.3613 H    0  0  0  0  0  0  0  0  0  0  0  0
   10.2631   11.0776   23.2768 H    0  0  0  0  0  0  0  0  0  0  0  0
  2  1  2  0  0  0  0
  3  2  1  0  0  0  0
  4  3  1  0  0  0  0
 20  4  1  0  0  0  0
 21  4  1  0  0  0  0
  5  4  1  0  0  0  0
 22  5  1  0  0  0  0
 23  5  1  0  0  0  0
  6  5  1  0  0  0  0
 24  6  1  0  0  0  0
 25  6  1  0  0  0  0
  7  3  1  0  0  0  0
 26  7  1  0  0  0  0
 27  7  1  0  0  0  0
  8  6  1  0  0  0  0
  9  8  1  0  0  0  0
 28  8  1  0  0  0  0
 10  9  2  0  0  0  0
 11  9  1  0  0  0  0
 29 11  1  0  0  0  0
 30 11  1  0  0  0  0
 12  2  1  0  0  0  0
 31 12  1  0  0  0  0
 32 12  1  0  0  0  0
 13 12  1  0  0  0  0
 19 13  2  0  0  0  0
 14 13  1  0  0  0  0
 33 14  1  0  0  0  0
 15 14  2  0  0  0  0
 16 15  1  0  0  0  0
 34 16  1  0  0  0  0
 35 16  1  0  0  0  0
 17 15  1  0  0  0  0
 18 17  2  0  0  0  0
 36 18  1  0  0  0  0
 37 19  1  0  0  0  0
  8  7  1  0  0  0  0
 19 18  1  0  0  0  0
M  END
>  <FittedScore>
-33.73

$$$$
