A71EV2A-x4324a_lowest-energy
  FITTED

 38 40     0  0  0  0  0  0  0999 V2000
   11.0684   14.6710   25.1446 O    0  0  0  0  0  0  0  0  0  0  0  0
   10.9421   14.9601   23.9707 C    0  0  0  0  0  0  0  0  0  0  0  0
   12.1720   15.4735   23.2055 C    0  0  0  0  0  0  0  0  0  0  0  0
   11.8874   16.0328   21.7897 C    0  0  0  0  0  0  0  0  0  0  0  0
    9.7526   14.7531   23.3030 N    0  0  0  0  0  0  0  0  0  0  0  0
    9.5507   15.0319   21.8599 C    0  0  0  0  0  0  0  0  0  0  0  0
   10.8725   15.1209   21.0582 C    0  0  0  0  0  0  0  0  0  0  0  0
   10.6157   15.5575   19.6205 C    0  0  0  0  0  0  0  0  0  0  0  0
    9.9341   16.5188   19.3126 O    0  0  0  0  0  0  0  0  0  0  0  0
   11.0029   14.6778   18.6808 N    0  0  0  0  0  0  0  0  0  0  0  0
    8.5346   14.1910   23.9510 C    0  0  0  0  0  0  0  0  0  0  0  0
    8.5544   12.6649   24.1150 C    0  0  0  0  0  0  0  0  0  0  0  0
    7.6167   12.0689   24.9719 C    0  0  0  0  0  0  0  0  0  0  0  0
    6.6429   12.7019   25.7098 O    0  0  0  0  0  0  0  0  0  0  0  0
    5.9189   11.7524   26.5370 C    0  0  0  0  0  0  0  0  0  0  0  0
    6.5131   10.3712   26.1701 C    0  0  0  0  0  0  0  0  0  0  0  0
    7.5817   10.7035   25.1749 C    0  0  0  0  0  0  0  0  0  0  0  0
    8.4685    9.8523   24.5087 C    0  0  0  0  0  0  0  0  0  0  0  0
    9.4263   10.4156   23.6474 C    0  0  0  0  0  0  0  0  0  0  0  0
    9.4683   11.8051   23.4498 C    0  0  0  0  0  0  0  0  0  0  0  0
   12.6615   16.2546   23.7920 H    0  0  0  0  0  0  0  0  0  0  0  0
   12.8951   14.6567   23.1241 H    0  0  0  0  0  0  0  0  0  0  0  0
   11.4940   17.0494   21.8670 H    0  0  0  0  0  0  0  0  0  0  0  0
   12.8203   16.0909   21.2230 H    0  0  0  0  0  0  0  0  0  0  0  0
    8.9989   15.9721   21.7750 H    0  0  0  0  0  0  0  0  0  0  0  0
    8.9324   14.2555   21.3928 H    0  0  0  0  0  0  0  0  0  0  0  0
   11.3067   14.1114   21.0547 H    0  0  0  0  0  0  0  0  0  0  0  0
   10.9536   14.9408   17.7042 H    0  0  0  0  0  0  0  0  0  0  0  0
   11.3006   13.7358   18.9329 H    0  0  0  0  0  0  0  0  0  0  0  0
    7.6248   14.4733   23.4134 H    0  0  0  0  0  0  0  0  0  0  0  0
    8.4210   14.6566   24.9335 H    0  0  0  0  0  0  0  0  0  0  0  0
    4.8532   11.8169   26.2962 H    0  0  0  0  0  0  0  0  0  0  0  0
    6.0717   11.9888   27.5909 H    0  0  0  0  0  0  0  0  0  0  0  0
    5.7533    9.7188   25.7258 H    0  0  0  0  0  0  0  0  0  0  0  0
    6.9463    9.8796   27.0428 H    0  0  0  0  0  0  0  0  0  0  0  0
    8.4255    8.7781   24.6609 H    0  0  0  0  0  0  0  0  0  0  0  0
   10.1335    9.7755   23.1229 H    0  0  0  0  0  0  0  0  0  0  0  0
   10.2227   12.1894   22.7680 H    0  0  0  0  0  0  0  0  0  0  0  0
  5 11  1  0  0  0  0
  2  5  1  0  0  0  0
  1  2  2  0  0  0  0
  3  2  1  0  0  0  0
 21  3  1  0  0  0  0
 22  3  1  0  0  0  0
  4  3  1  0  0  0  0
 23  4  1  0  0  0  0
 24  4  1  0  0  0  0
  6  5  1  0  0  0  0
 25  6  1  0  0  0  0
 26  6  1  0  0  0  0
  7  4  1  0  0  0  0
  8  7  1  0  0  0  0
 27  7  1  0  0  0  0
  9  8  2  0  0  0  0
 10  8  1  0  0  0  0
 28 10  1  0  0  0  0
 29 10  1  0  0  0  0
 30 11  1  0  0  0  0
 31 11  1  0  0  0  0
 12 11  1  0  0  0  0
 20 12  2  0  0  0  0
 13 12  1  0  0  0  0
 14 13  1  0  0  0  0
 15 14  1  0  0  0  0
 32 15  1  0  0  0  0
 33 15  1  0  0  0  0
 16 15  1  0  0  0  0
 34 16  1  0  0  0  0
 35 16  1  0  0  0  0
 17 13  2  0  0  0  0
 18 17  1  0  0  0  0
 36 18  1  0  0  0  0
 19 18  2  0  0  0  0
 37 19  1  0  0  0  0
 38 20  1  0  0  0  0
  7  6  1  0  0  0  0
 17 16  1  0  0  0  0
 20 19  1  0  0  0  0
M  END
>  <FittedScore>
-32.57

$$$$
