A71EV2A-x4324a_best-RMSD
  FITTED

 38 40     0  0  0  0  0  0  0999 V2000
   10.9570   14.6010   25.1740 O    0  0  0  0  0  0  0  0  0  0  0  0
   10.8195   14.8667   23.9944 C    0  0  0  0  0  0  0  0  0  0  0  0
   12.0532   15.3429   23.2062 C    0  0  0  0  0  0  0  0  0  0  0  0
   11.7676   15.9003   21.7884 C    0  0  0  0  0  0  0  0  0  0  0  0
    9.6166   14.6825   23.3414 N    0  0  0  0  0  0  0  0  0  0  0  0
    9.4083   14.9586   21.8941 C    0  0  0  0  0  0  0  0  0  0  0  0
   10.7228   15.0117   21.0737 C    0  0  0  0  0  0  0  0  0  0  0  0
   10.4901   15.4518   19.6325 C    0  0  0  0  0  0  0  0  0  0  0  0
    9.8435   16.4334   19.3153 O    0  0  0  0  0  0  0  0  0  0  0  0
   10.9338   14.5926   18.6973 N    0  0  0  0  0  0  0  0  0  0  0  0
    8.3755   14.1934   24.0179 C    0  0  0  0  0  0  0  0  0  0  0  0
    8.3237   12.6770   24.2630 C    0  0  0  0  0  0  0  0  0  0  0  0
    7.3451   12.1608   25.1346 C    0  0  0  0  0  0  0  0  0  0  0  0
    6.3672   12.8633   25.8055 O    0  0  0  0  0  0  0  0  0  0  0  0
    5.6561   11.9928   26.7313 C    0  0  0  0  0  0  0  0  0  0  0  0
    6.1731   10.5654   26.4198 C    0  0  0  0  0  0  0  0  0  0  0  0
    7.2615   10.8114   25.4168 C    0  0  0  0  0  0  0  0  0  0  0  0
    8.1239    9.8929   24.8104 C    0  0  0  0  0  0  0  0  0  0  0  0
    9.1051   10.3699   23.9252 C    0  0  0  0  0  0  0  0  0  0  0  0
    9.2029   11.7472   23.6498 C    0  0  0  0  0  0  0  0  0  0  0  0
   12.5688   16.1172   23.7803 H    0  0  0  0  0  0  0  0  0  0  0  0
   12.7569   14.5081   23.1203 H    0  0  0  0  0  0  0  0  0  0  0  0
   11.4086   16.9322   21.8573 H    0  0  0  0  0  0  0  0  0  0  0  0
   12.6982   15.9266   21.2125 H    0  0  0  0  0  0  0  0  0  0  0  0
    8.8678   15.9058   21.8087 H    0  0  0  0  0  0  0  0  0  0  0  0
    8.7715   14.1885   21.4442 H    0  0  0  0  0  0  0  0  0  0  0  0
   11.1219   13.9880   21.0662 H    0  0  0  0  0  0  0  0  0  0  0  0
   10.8880   14.8459   17.7165 H    0  0  0  0  0  0  0  0  0  0  0  0
   11.2616   13.6625   18.9634 H    0  0  0  0  0  0  0  0  0  0  0  0
    7.4742   14.4788   23.4667 H    0  0  0  0  0  0  0  0  0  0  0  0
    8.2841   14.7159   24.9728 H    0  0  0  0  0  0  0  0  0  0  0  0
    4.5799   12.0879   26.5650 H    0  0  0  0  0  0  0  0  0  0  0  0
    5.8921   12.2886   27.7581 H    0  0  0  0  0  0  0  0  0  0  0  0
    5.3828    9.9423   25.9923 H    0  0  0  0  0  0  0  0  0  0  0  0
    6.5657   10.0826   27.3182 H    0  0  0  0  0  0  0  0  0  0  0  0
    8.0517    8.8323   25.0347 H    0  0  0  0  0  0  0  0  0  0  0  0
    9.7954    9.6759   23.4535 H    0  0  0  0  0  0  0  0  0  0  0  0
    9.9747   12.0684   22.9554 H    0  0  0  0  0  0  0  0  0  0  0  0
  5 11  1  0  0  0  0
  2  5  1  0  0  0  0
  1  2  2  0  0  0  0
  3  2  1  0  0  0  0
 21  3  1  0  0  0  0
 22  3  1  0  0  0  0
  4  3  1  0  0  0  0
 23  4  1  0  0  0  0
 24  4  1  0  0  0  0
  6  5  1  0  0  0  0
 25  6  1  0  0  0  0
 26  6  1  0  0  0  0
  7  4  1  0  0  0  0
  8  7  1  0  0  0  0
 27  7  1  0  0  0  0
  9  8  2  0  0  0  0
 10  8  1  0  0  0  0
 28 10  1  0  0  0  0
 29 10  1  0  0  0  0
 30 11  1  0  0  0  0
 31 11  1  0  0  0  0
 12 11  1  0  0  0  0
 20 12  2  0  0  0  0
 13 12  1  0  0  0  0
 14 13  1  0  0  0  0
 15 14  1  0  0  0  0
 32 15  1  0  0  0  0
 33 15  1  0  0  0  0
 16 15  1  0  0  0  0
 34 16  1  0  0  0  0
 35 16  1  0  0  0  0
 17 13  2  0  0  0  0
 18 17  1  0  0  0  0
 36 18  1  0  0  0  0
 19 18  2  0  0  0  0
 37 19  1  0  0  0  0
 38 20  1  0  0  0  0
  7  6  1  0  0  0  0
 17 16  1  0  0  0  0
 20 19  1  0  0  0  0
M  END
>  <FittedScore>
-32.25

$$$$
