A71EV2A-x7246a_lowest-energy
  FITTED

 56 58     0  0  0  0  0  0  0999 V2000
    9.6246    8.6755   23.3499 C    0  0  0  0  0  0  0  0  0  0  0  0
    9.4909   10.4291   23.8278 S    0  0  0  0  0  0  0  0  0  0  0  0
    8.0881   10.5569   24.9317 C    0  0  0  0  0  0  0  0  0  0  0  0
    7.4533    9.4010   25.2605 N    0  0  0  0  0  0  0  0  0  0  0  0
    6.3692    9.4734   26.0688 C    0  0  0  0  0  0  0  0  0  0  0  0
    5.8510   10.6252   26.5546 N    0  0  0  0  0  0  0  0  0  0  0  0
    6.4559   11.8061   26.2505 C    0  0  0  0  0  0  0  0  0  0  0  0
    5.8376   12.9421   26.7701 N    0  0  0  0  0  0  0  0  0  0  0  0
    5.3045   12.9635   28.1697 C    0  0  0  0  0  0  0  0  0  0  0  0
    5.3509   14.3808   28.8051 C    0  0  0  0  0  0  0  0  0  0  0  0
    4.8225   15.4886   27.8530 C    0  0  0  0  0  0  0  0  0  0  0  0
    5.4608   15.3950   26.4255 C    0  0  0  0  0  0  0  0  0  0  0  0
    4.9702   16.5123   25.4541 C    0  0  0  0  0  0  0  0  0  0  0  0
    5.0191   17.7195   26.0273 F    0  0  0  0  0  0  0  0  0  0  0  0
    3.6989   16.3277   25.0494 F    0  0  0  0  0  0  0  0  0  0  0  0
    5.7490   16.5796   24.3547 F    0  0  0  0  0  0  0  0  0  0  0  0
    5.2434   13.9570   25.8597 C    0  0  0  0  0  0  0  0  0  0  0  0
    7.6315   11.8110   25.4317 C    0  0  0  0  0  0  0  0  0  0  0  0
    8.3996   13.0982   25.0822 C    0  0  0  0  0  0  0  0  0  0  0  0
    8.1357   13.6542   23.6735 C    0  0  0  0  0  0  0  0  0  0  0  0
    7.3294   13.0977   22.9456 O    0  0  0  0  0  0  0  0  0  0  0  0
    8.8811   14.7362   23.2416 N    0  0  0  0  0  0  0  0  0  0  0  0
    9.8913   15.5084   24.0402 C    0  0  0  0  0  0  0  0  0  0  0  0
   11.3278   15.3945   23.4640 C    0  0  0  0  0  0  0  0  0  0  0  0
   11.3782   15.8008   21.9659 C    0  0  0  0  0  0  0  0  0  0  0  0
   10.2681   15.0760   21.1493 C    0  0  0  0  0  0  0  0  0  0  0  0
   10.2737   15.5484   19.7023 C    0  0  0  0  0  0  0  0  0  0  0  0
   10.8368   14.7152   18.8127 N    0  0  0  0  0  0  0  0  0  0  0  0
    9.8123   16.6117   19.3373 O    0  0  0  0  0  0  0  0  0  0  0  0
    8.8661   15.2161   21.8229 C    0  0  0  0  0  0  0  0  0  0  0  0
    8.7254    8.3628   22.8139 H    0  0  0  0  0  0  0  0  0  0  0  0
    9.7520    8.0577   24.2406 H    0  0  0  0  0  0  0  0  0  0  0  0
   10.4910    8.5384   22.7020 H    0  0  0  0  0  0  0  0  0  0  0  0
    5.8685    8.5481   26.3311 H    0  0  0  0  0  0  0  0  0  0  0  0
    5.8771   12.2948   28.8198 H    0  0  0  0  0  0  0  0  0  0  0  0
    4.2714   12.5980   28.1984 H    0  0  0  0  0  0  0  0  0  0  0  0
    6.3802   14.6146   29.0904 H    0  0  0  0  0  0  0  0  0  0  0  0
    4.7625   14.3873   29.7274 H    0  0  0  0  0  0  0  0  0  0  0  0
    5.0482   16.4582   28.3016 H    0  0  0  0  0  0  0  0  0  0  0  0
    3.7340   15.4197   27.7749 H    0  0  0  0  0  0  0  0  0  0  0  0
    6.5411   15.5427   26.5396 H    0  0  0  0  0  0  0  0  0  0  0  0
    5.6366   13.8979   24.8476 H    0  0  0  0  0  0  0  0  0  0  0  0
    4.1754   13.7602   25.7336 H    0  0  0  0  0  0  0  0  0  0  0  0
    9.4676   12.9114   25.2228 H    0  0  0  0  0  0  0  0  0  0  0  0
    8.1727   13.8683   25.8218 H    0  0  0  0  0  0  0  0  0  0  0  0
    9.9380   15.2244   25.0894 H    0  0  0  0  0  0  0  0  0  0  0  0
    9.5893   16.5589   24.0604 H    0  0  0  0  0  0  0  0  0  0  0  0
   11.6820   14.3662   23.5772 H    0  0  0  0  0  0  0  0  0  0  0  0
   12.0054   16.0306   24.0359 H    0  0  0  0  0  0  0  0  0  0  0  0
   12.3636   15.5532   21.5547 H    0  0  0  0  0  0  0  0  0  0  0  0
   11.2538   16.8848   21.8850 H    0  0  0  0  0  0  0  0  0  0  0  0
   10.5037   14.0057   21.1693 H    0  0  0  0  0  0  0  0  0  0  0  0
   11.1202   13.7806   19.1056 H    0  0  0  0  0  0  0  0  0  0  0  0
   10.8516   14.9594   17.8307 H    0  0  0  0  0  0  0  0  0  0  0  0
    8.1444   14.6830   21.2001 H    0  0  0  0  0  0  0  0  0  0  0  0
    8.5345   16.2583   21.8105 H    0  0  0  0  0  0  0  0  0  0  0  0
 18 19  1  0  0  0  0
  7 18  2  0  0  0  0
  6  7  1  0  0  0  0
  5  6  2  0  0  0  0
  4  5  1  0  0  0  0
  3  4  2  0  0  0  0
  2  3  1  0  0  0  0
  1  2  1  0  0  0  0
 31  1  1  0  0  0  0
 32  1  1  0  0  0  0
 33  1  1  0  0  0  0
 34  5  1  0  0  0  0
  8  7  1  0  0  0  0
  9  8  1  0  0  0  0
 10  9  1  0  0  0  0
 35  9  1  0  0  0  0
 36  9  1  0  0  0  0
 11 10  1  0  0  0  0
 37 10  1  0  0  0  0
 38 10  1  0  0  0  0
 12 11  1  0  0  0  0
 39 11  1  0  0  0  0
 40 11  1  0  0  0  0
 13 12  1  0  0  0  0
 17 12  1  0  0  0  0
 41 12  1  0  0  0  0
 14 13  1  0  0  0  0
 15 13  1  0  0  0  0
 16 13  1  0  0  0  0
 42 17  1  0  0  0  0
 43 17  1  0  0  0  0
 20 19  1  0  0  0  0
 44 19  1  0  0  0  0
 45 19  1  0  0  0  0
 21 20  2  0  0  0  0
 22 20  1  0  0  0  0
 23 22  1  0  0  0  0
 24 23  1  0  0  0  0
 46 23  1  0  0  0  0
 47 23  1  0  0  0  0
 25 24  1  0  0  0  0
 48 24  1  0  0  0  0
 49 24  1  0  0  0  0
 26 25  1  0  0  0  0
 50 25  1  0  0  0  0
 51 25  1  0  0  0  0
 27 26  1  0  0  0  0
 30 26  1  0  0  0  0
 52 26  1  0  0  0  0
 28 27  1  0  0  0  0
 29 27  2  0  0  0  0
 53 28  1  0  0  0  0
 54 28  1  0  0  0  0
 55 30  1  0  0  0  0
 56 30  1  0  0  0  0
 17  8  1  0  0  0  0
 18  3  1  0  0  0  0
 30 22  1  0  0  0  0
M  END
>  <FittedScore>
-32.16

$$$$
