A71EV2A-x2513a_lowest-energy
  FITTED

 20 21     0  0  0  0  0  0  0999 V2000
   11.9583   15.9983   21.6348 O    0  0  0  0  0  0  0  0  0  0  0  0
   11.3558   14.9637   21.8199 C    0  0  0  0  0  0  0  0  0  0  0  0
   11.7037   14.0552   22.7601 N    0  0  0  0  0  0  0  0  0  0  0  0
   10.6347   13.3073   23.3222 C    0  0  0  0  0  0  0  0  0  0  0  0
   10.6538   12.3175   24.3182 C    0  0  0  0  0  0  0  0  0  0  0  0
   12.1235   11.8250   25.0982 CL   0  0  0  0  0  0  0  0  0  0  0  0
    9.4229   11.7480   24.7060 C    0  0  0  0  0  0  0  0  0  0  0  0
    8.2171   12.1570   24.1004 C    0  0  0  0  0  0  0  0  0  0  0  0
    9.7973   14.7827   21.7517 C    0  0  0  0  0  0  0  0  0  0  0  0
    9.0390   15.4406   21.0686 O    0  0  0  0  0  0  0  0  0  0  0  0
    9.4529   13.7124   22.7297 C    0  0  0  0  0  0  0  0  0  0  0  0
    8.2193   13.1382   23.0881 C    0  0  0  0  0  0  0  0  0  0  0  0
    7.0344   13.4702   22.4481 O    0  0  0  0  0  0  0  0  0  0  0  0
    6.2403   14.5912   22.9093 C    0  0  0  0  0  0  0  0  0  0  0  0
   12.6730   13.7962   22.9423 H    0  0  0  0  0  0  0  0  0  0  0  0
    9.3966   10.9828   25.4792 H    0  0  0  0  0  0  0  0  0  0  0  0
    7.2784   11.6989   24.4065 H    0  0  0  0  0  0  0  0  0  0  0  0
    5.8826   14.3862   23.9230 H    0  0  0  0  0  0  0  0  0  0  0  0
    5.3737   14.7409   22.2575 H    0  0  0  0  0  0  0  0  0  0  0  0
    6.8386   15.5073   22.9210 H    0  0  0  0  0  0  0  0  0  0  0  0
  4 11  2  0  0  0  0
  3  4  1  0  0  0  0
  2  3  1  0  0  0  0
  1  2  2  0  0  0  0
 15  3  1  0  0  0  0
  5  4  1  0  0  0  0
  6  5  1  0  0  0  0
  7  5  2  0  0  0  0
 16  7  1  0  0  0  0
  8  7  1  0  0  0  0
 17  8  1  0  0  0  0
  9  2  1  0  0  0  0
 10  9  2  0  0  0  0
 12  8  2  0  0  0  0
 13 12  1  0  0  0  0
 14 13  1  0  0  0  0
 18 14  1  0  0  0  0
 19 14  1  0  0  0  0
 20 14  1  0  0  0  0
 11  9  1  0  0  0  0
 12 11  1  0  0  0  0
M  END
>  <FittedScore>
-21.11

$$$$
