A71EV2A-x2513a_best-RMSD
  FITTED

 20 21     0  0  0  0  0  0  0999 V2000
   11.9863   15.9158   21.6767 O    0  0  0  0  0  0  0  0  0  0  0  0
   11.3441   14.9164   21.9306 C    0  0  0  0  0  0  0  0  0  0  0  0
   11.6807   13.9871   22.8593 N    0  0  0  0  0  0  0  0  0  0  0  0
   10.5896   13.2605   23.4106 C    0  0  0  0  0  0  0  0  0  0  0  0
   10.5722   12.2470   24.3828 C    0  0  0  0  0  0  0  0  0  0  0  0
   12.0052   11.7420   25.2148 CL   0  0  0  0  0  0  0  0  0  0  0  0
    9.3311   11.6772   24.7151 C    0  0  0  0  0  0  0  0  0  0  0  0
    8.1470   12.1135   24.0861 C    0  0  0  0  0  0  0  0  0  0  0  0
    9.7872   14.7881   21.8713 C    0  0  0  0  0  0  0  0  0  0  0  0
    9.0463   15.4898   21.2119 O    0  0  0  0  0  0  0  0  0  0  0  0
    9.4197   13.6931   22.8194 C    0  0  0  0  0  0  0  0  0  0  0  0
    8.1764   13.1338   23.1160 C    0  0  0  0  0  0  0  0  0  0  0  0
    7.0135   13.4733   22.4368 O    0  0  0  0  0  0  0  0  0  0  0  0
    6.2167   14.5997   22.8806 C    0  0  0  0  0  0  0  0  0  0  0  0
   12.6411   13.7086   23.0361 H    0  0  0  0  0  0  0  0  0  0  0  0
    9.2798   10.8918   25.4613 H    0  0  0  0  0  0  0  0  0  0  0  0
    7.2012   11.6436   24.3429 H    0  0  0  0  0  0  0  0  0  0  0  0
    5.3277   14.6736   22.2551 H    0  0  0  0  0  0  0  0  0  0  0  0
    6.7852   15.5290   22.7950 H    0  0  0  0  0  0  0  0  0  0  0  0
    5.9200   14.4597   23.9221 H    0  0  0  0  0  0  0  0  0  0  0  0
  4 11  2  0  0  0  0
  3  4  1  0  0  0  0
  2  3  1  0  0  0  0
  1  2  2  0  0  0  0
 15  3  1  0  0  0  0
  5  4  1  0  0  0  0
  6  5  1  0  0  0  0
  7  5  2  0  0  0  0
 16  7  1  0  0  0  0
  8  7  1  0  0  0  0
 17  8  1  0  0  0  0
  9  2  1  0  0  0  0
 10  9  2  0  0  0  0
 12  8  2  0  0  0  0
 13 12  1  0  0  0  0
 14 13  1  0  0  0  0
 18 14  1  0  0  0  0
 19 14  1  0  0  0  0
 20 14  1  0  0  0  0
 11  9  1  0  0  0  0
 12 11  1  0  0  0  0
M  END
>  <FittedScore>
-20.48

$$$$
