A71EV2A-x3193a_best-RMSD
  FITTED

 35 36     0  0  0  0  0  0  0999 V2000
   10.5610   11.3665   23.6151 BR   0  0  0  0  0  0  0  0  0  0  0  0
    8.9852   10.8727   24.6069 C    0  0  0  0  0  0  0  0  0  0  0  0
    8.6262    9.5046   24.7292 C    0  0  0  0  0  0  0  0  0  0  0  0
    9.4659    8.2160   23.9193 CL   0  0  0  0  0  0  0  0  0  0  0  0
    7.5749    9.1040   25.4948 N    0  0  0  0  0  0  0  0  0  0  0  0
    6.8321   10.0277   26.1548 C    0  0  0  0  0  0  0  0  0  0  0  0
    7.0908   11.3967   26.0457 C    0  0  0  0  0  0  0  0  0  0  0  0
    8.1682   11.8434   25.2542 C    0  0  0  0  0  0  0  0  0  0  0  0
    8.3607   13.3600   25.0959 C    0  0  0  0  0  0  0  0  0  0  0  0
    8.1234   13.8566   23.6525 C    0  0  0  0  0  0  0  0  0  0  0  0
    7.3692   13.2208   22.9276 O    0  0  0  0  0  0  0  0  0  0  0  0
    8.8443   14.9285   23.1562 N    0  0  0  0  0  0  0  0  0  0  0  0
    9.8457   15.7768   23.8900 C    0  0  0  0  0  0  0  0  0  0  0  0
   11.2867   15.6302   23.3145 C    0  0  0  0  0  0  0  0  0  0  0  0
   11.3231   15.9567   21.7993 C    0  0  0  0  0  0  0  0  0  0  0  0
    8.8043   15.3603   21.7215 C    0  0  0  0  0  0  0  0  0  0  0  0
   10.1965   15.2002   21.0312 C    0  0  0  0  0  0  0  0  0  0  0  0
   10.1815   15.6435   19.5664 C    0  0  0  0  0  0  0  0  0  0  0  0
    9.7717   16.7176   19.1729 O    0  0  0  0  0  0  0  0  0  0  0  0
   10.6310   14.7380   18.6854 N    0  0  0  0  0  0  0  0  0  0  0  0
    5.9957    9.6983   26.7618 H    0  0  0  0  0  0  0  0  0  0  0  0
    6.4488   12.1020   26.5697 H    0  0  0  0  0  0  0  0  0  0  0  0
    7.6873   13.9192   25.7496 H    0  0  0  0  0  0  0  0  0  0  0  0
    9.3593   13.5623   25.4823 H    0  0  0  0  0  0  0  0  0  0  0  0
    9.5403   16.8252   23.8093 H    0  0  0  0  0  0  0  0  0  0  0  0
    9.8784   15.6053   24.9647 H    0  0  0  0  0  0  0  0  0  0  0  0
   11.9695   16.2964   23.8470 H    0  0  0  0  0  0  0  0  0  0  0  0
   11.6527   14.6116   23.4767 H    0  0  0  0  0  0  0  0  0  0  0  0
   11.2202   17.0359   21.6581 H    0  0  0  0  0  0  0  0  0  0  0  0
   12.2948   15.6759   21.3894 H    0  0  0  0  0  0  0  0  0  0  0  0
    8.4655   16.3982   21.6771 H    0  0  0  0  0  0  0  0  0  0  0  0
    8.0572   14.8244   21.1317 H    0  0  0  0  0  0  0  0  0  0  0  0
   10.4379   14.1264   21.0925 H    0  0  0  0  0  0  0  0  0  0  0  0
   10.8379   13.7875   18.9932 H    0  0  0  0  0  0  0  0  0  0  0  0
   10.5585   14.9360   17.6963 H    0  0  0  0  0  0  0  0  0  0  0  0
 10 12  1  0  0  0  0
  9 10  1  0  0  0  0
  8  9  1  0  0  0  0
  7  8  2  0  0  0  0
  6  7  1  0  0  0  0
  5  6  2  0  0  0  0
  3  5  1  0  0  0  0
  2  3  2  0  0  0  0
  1  2  1  0  0  0  0
  4  3  1  0  0  0  0
 21  6  1  0  0  0  0
 22  7  1  0  0  0  0
 23  9  1  0  0  0  0
 24  9  1  0  0  0  0
 11 10  2  0  0  0  0
 13 12  1  0  0  0  0
 25 13  1  0  0  0  0
 26 13  1  0  0  0  0
 14 13  1  0  0  0  0
 27 14  1  0  0  0  0
 28 14  1  0  0  0  0
 15 14  1  0  0  0  0
 29 15  1  0  0  0  0
 30 15  1  0  0  0  0
 16 12  1  0  0  0  0
 31 16  1  0  0  0  0
 32 16  1  0  0  0  0
 17 15  1  0  0  0  0
 18 17  1  0  0  0  0
 33 17  1  0  0  0  0
 19 18  2  0  0  0  0
 20 18  1  0  0  0  0
 34 20  1  0  0  0  0
 35 20  1  0  0  0  0
  8  2  1  0  0  0  0
 17 16  1  0  0  0  0
M  END
>  <FittedScore>
-30.97

$$$$
