A71EV2A-x3225a_best-RMSD
  FITTED

 42 44     0  0  0  0  0  0  0999 V2000
    9.8214   16.7530   19.2343 O    0  0  0  0  0  0  0  0  0  0  0  0
   10.3902   15.7346   19.5865 C    0  0  0  0  0  0  0  0  0  0  0  0
   10.8189   14.8298   18.6844 N    0  0  0  0  0  0  0  0  0  0  0  0
   10.5156   15.2747   21.0376 C    0  0  0  0  0  0  0  0  0  0  0  0
   11.4596   16.1972   21.8638 C    0  0  0  0  0  0  0  0  0  0  0  0
   11.5803   15.6662   23.3153 C    0  0  0  0  0  0  0  0  0  0  0  0
   10.1835   15.4257   23.9585 C    0  0  0  0  0  0  0  0  0  0  0  0
    9.1280   15.1088   21.7367 C    0  0  0  0  0  0  0  0  0  0  0  0
    9.2382   14.5807   23.1363 N    0  0  0  0  0  0  0  0  0  0  0  0
    8.4671   13.5289   23.6019 C    0  0  0  0  0  0  0  0  0  0  0  0
    7.5336   13.0737   22.9511 O    0  0  0  0  0  0  0  0  0  0  0  0
    8.8518   12.9088   24.9585 C    0  0  0  0  0  0  0  0  0  0  0  0
    8.1432   11.6488   25.2447 N    0  0  0  0  0  0  0  0  0  0  0  0
    8.4537   10.3781   24.8400 C    0  0  0  0  0  0  0  0  0  0  0  0
    9.6732   10.0224   24.0121 C    0  0  0  0  0  0  0  0  0  0  0  0
    6.9718   11.5926   25.9393 C    0  0  0  0  0  0  0  0  0  0  0  0
    6.6180   10.2631   26.0093 C    0  0  0  0  0  0  0  0  0  0  0  0
    7.6047    9.4978   25.2535 N    0  0  0  0  0  0  0  0  0  0  0  0
    6.1716   12.5878   26.5213 C    0  0  0  0  0  0  0  0  0  0  0  0
    5.0124   12.1853   27.2119 C    0  0  0  0  0  0  0  0  0  0  0  0
    4.6777   10.8183   27.3134 C    0  0  0  0  0  0  0  0  0  0  0  0
    5.4816    9.8362   26.7027 C    0  0  0  0  0  0  0  0  0  0  0  0
   10.7158   15.0100   17.6898 H    0  0  0  0  0  0  0  0  0  0  0  0
   11.0859   13.8913   18.9812 H    0  0  0  0  0  0  0  0  0  0  0  0
   10.9755   14.2812   21.0492 H    0  0  0  0  0  0  0  0  0  0  0  0
   12.4486   16.2425   21.4018 H    0  0  0  0  0  0  0  0  0  0  0  0
   11.0687   17.2217   21.8828 H    0  0  0  0  0  0  0  0  0  0  0  0
   12.1687   14.7414   23.3187 H    0  0  0  0  0  0  0  0  0  0  0  0
   12.1431   16.3868   23.9183 H    0  0  0  0  0  0  0  0  0  0  0  0
   10.3703   15.0346   24.9566 H    0  0  0  0  0  0  0  0  0  0  0  0
    9.7095   16.3919   24.1301 H    0  0  0  0  0  0  0  0  0  0  0  0
    8.5225   14.4552   21.0986 H    0  0  0  0  0  0  0  0  0  0  0  0
    8.5963   16.0684   21.7670 H    0  0  0  0  0  0  0  0  0  0  0  0
    9.9289   12.7290   24.9661 H    0  0  0  0  0  0  0  0  0  0  0  0
    8.6867   13.6425   25.7498 H    0  0  0  0  0  0  0  0  0  0  0  0
   10.5850   10.2248   24.5800 H    0  0  0  0  0  0  0  0  0  0  0  0
    9.7115   10.6060   23.0883 H    0  0  0  0  0  0  0  0  0  0  0  0
    9.6845    8.9639   23.7379 H    0  0  0  0  0  0  0  0  0  0  0  0
    6.4239   13.6423   26.4419 H    0  0  0  0  0  0  0  0  0  0  0  0
    4.3738   12.9390   27.6673 H    0  0  0  0  0  0  0  0  0  0  0  0
    3.7865   10.5202   27.8579 H    0  0  0  0  0  0  0  0  0  0  0  0
    5.2284    8.7805   26.7655 H    0  0  0  0  0  0  0  0  0  0  0  0
  9 10  1  0  0  0  0
  7  9  1  0  0  0  0
  6  7  1  0  0  0  0
  5  6  1  0  0  0  0
  4  5  1  0  0  0  0
  2  4  1  0  0  0  0
  1  2  2  0  0  0  0
  3  2  1  0  0  0  0
 23  3  1  0  0  0  0
 24  3  1  0  0  0  0
 25  4  1  0  0  0  0
 26  5  1  0  0  0  0
 27  5  1  0  0  0  0
 28  6  1  0  0  0  0
 29  6  1  0  0  0  0
 30  7  1  0  0  0  0
 31  7  1  0  0  0  0
  8  4  1  0  0  0  0
 32  8  1  0  0  0  0
 33  8  1  0  0  0  0
 11 10  2  0  0  0  0
 12 10  1  0  0  0  0
 34 12  1  0  0  0  0
 35 12  1  0  0  0  0
 13 12  1  0  0  0  0
 14 13  1  0  0  0  0
 18 14  2  0  0  0  0
 15 14  1  0  0  0  0
 36 15  1  0  0  0  0
 37 15  1  0  0  0  0
 38 15  1  0  0  0  0
 16 13  1  0  0  0  0
 17 16  1  0  0  0  0
 22 17  2  0  0  0  0
 19 16  2  0  0  0  0
 39 19  1  0  0  0  0
 20 19  1  0  0  0  0
 40 20  1  0  0  0  0
 21 20  2  0  0  0  0
 41 21  1  0  0  0  0
 42 22  1  0  0  0  0
  9  8  1  0  0  0  0
 18 17  1  0  0  0  0
 22 21  1  0  0  0  0
M  END
>  <FittedScore>
-34.89

$$$$
