A71EV2A-x6945a_lowest-energy
  FITTED

 54 56     0  0  0  0  0  0  0999 V2000
    3.4599   14.5461   19.5344 C    0  0  0  0  0  0  0  0  0  0  0  0
    3.1255   14.7234   21.0342 C    0  0  0  0  0  0  0  0  0  0  0  0
    4.0926   15.6389   21.6895 N    0  0  0  0  0  0  0  0  0  0  0  0
    3.6956   16.9374   21.8461 N    0  0  0  0  0  0  0  0  0  0  0  0
    4.9141   17.5155   22.4210 C    0  0  0  0  0  0  0  0  0  0  0  0
    5.8762   16.5571   22.6078 C    0  0  0  0  0  0  0  0  0  0  0  0
    5.3400   15.3470   22.2018 C    0  0  0  0  0  0  0  0  0  0  0  0
    6.0178   14.0017   22.3147 C    0  0  0  0  0  0  0  0  0  0  0  0
    5.6386   12.9964   21.7477 O    0  0  0  0  0  0  0  0  0  0  0  0
    7.0573   14.0072   23.1824 N    0  0  0  0  0  0  0  0  0  0  0  0
    7.9983   12.9091   23.4834 C    0  0  0  0  0  0  0  0  0  0  0  0
    9.3820   13.5068   23.8227 C    0  0  0  0  0  0  0  0  0  0  0  0
    9.8939   13.3090   24.9126 O    0  0  0  0  0  0  0  0  0  0  0  0
   10.0401   14.2515   22.8694 N    0  0  0  0  0  0  0  0  0  0  0  0
   11.3133   14.9800   23.0833 C    0  0  0  0  0  0  0  0  0  0  0  0
   11.7428   15.6048   21.7363 C    0  0  0  0  0  0  0  0  0  0  0  0
   11.0026   14.7217   20.7267 C    0  0  0  0  0  0  0  0  0  0  0  0
   10.7981   15.2949   19.3327 C    0  0  0  0  0  0  0  0  0  0  0  0
   11.2300   14.5049   18.3386 N    0  0  0  0  0  0  0  0  0  0  0  0
   10.0956   16.2578   19.0913 O    0  0  0  0  0  0  0  0  0  0  0  0
    9.6870   14.3989   21.4424 C    0  0  0  0  0  0  0  0  0  0  0  0
    7.4676   11.9211   24.5592 C    0  0  0  0  0  0  0  0  0  0  0  0
    6.4671   12.3159   25.4836 C    0  0  0  0  0  0  0  0  0  0  0  0
    5.9535   11.4177   26.4266 C    0  0  0  0  0  0  0  0  0  0  0  0
    6.4312   10.1058   26.4706 C    0  0  0  0  0  0  0  0  0  0  0  0
    7.4479    9.7080   25.5970 C    0  0  0  0  0  0  0  0  0  0  0  0
    8.0016   10.6061   24.6610 C    0  0  0  0  0  0  0  0  0  0  0  0
    9.4278   10.1009   23.6862 S    0  0  0  0  0  0  0  0  0  0  0  0
    9.2066    8.3364   23.3374 C    0  0  0  0  0  0  0  0  0  0  0  0
    2.7534   13.8543   19.0694 H    0  0  0  0  0  0  0  0  0  0  0  0
    4.4692   14.1489   19.3900 H    0  0  0  0  0  0  0  0  0  0  0  0
    3.3975   15.5052   19.0127 H    0  0  0  0  0  0  0  0  0  0  0  0
    3.0772   13.7480   21.5193 H    0  0  0  0  0  0  0  0  0  0  0  0
    2.1004   15.0981   21.1062 H    0  0  0  0  0  0  0  0  0  0  0  0
    5.0070   18.5776   22.6325 H    0  0  0  0  0  0  0  0  0  0  0  0
    6.8718   16.7398   23.0150 H    0  0  0  0  0  0  0  0  0  0  0  0
    7.2003   14.8609   23.7172 H    0  0  0  0  0  0  0  0  0  0  0  0
    8.0896   12.3300   22.5613 H    0  0  0  0  0  0  0  0  0  0  0  0
   12.0772   14.2794   23.4385 H    0  0  0  0  0  0  0  0  0  0  0  0
   11.1845   15.7577   23.8429 H    0  0  0  0  0  0  0  0  0  0  0  0
   12.8259   15.5592   21.5959 H    0  0  0  0  0  0  0  0  0  0  0  0
   11.4252   16.6520   21.6703 H    0  0  0  0  0  0  0  0  0  0  0  0
   11.5715   13.7856   20.6527 H    0  0  0  0  0  0  0  0  0  0  0  0
   11.0421   14.7527   17.3743 H    0  0  0  0  0  0  0  0  0  0  0  0
   11.7094   13.6353   18.5449 H    0  0  0  0  0  0  0  0  0  0  0  0
    9.2649   13.4899   21.0067 H    0  0  0  0  0  0  0  0  0  0  0  0
    8.9568   15.2080   21.3287 H    0  0  0  0  0  0  0  0  0  0  0  0
    6.0627   13.3245   25.4841 H    0  0  0  0  0  0  0  0  0  0  0  0
    5.1829   11.7390   27.1223 H    0  0  0  0  0  0  0  0  0  0  0  0
    6.0304    9.4031   27.1972 H    0  0  0  0  0  0  0  0  0  0  0  0
    7.8249    8.6978   25.6966 H    0  0  0  0  0  0  0  0  0  0  0  0
    9.3725    7.7532   24.2441 H    0  0  0  0  0  0  0  0  0  0  0  0
    9.9328    8.0307   22.5838 H    0  0  0  0  0  0  0  0  0  0  0  0
    8.1999    8.1585   22.9538 H    0  0  0  0  0  0  0  0  0  0  0  0
 10 11  1  0  0  0  0
  8 10  1  0  0  0  0
  7  8  1  0  0  0  0
  6  7  2  0  0  0  0
  5  6  1  0  0  0  0
  4  5  2  0  0  0  0
  3  4  1  0  0  0  0
  2  3  1  0  0  0  0
  1  2  1  0  0  0  0
 30  1  1  0  0  0  0
 31  1  1  0  0  0  0
 32  1  1  0  0  0  0
 33  2  1  0  0  0  0
 34  2  1  0  0  0  0
 35  5  1  0  0  0  0
 36  6  1  0  0  0  0
  9  8  2  0  0  0  0
 37 10  1  0  0  0  0
 12 11  1  0  0  0  0
 22 11  1  0  0  0  0
 38 11  1  0  0  0  0
 13 12  2  0  0  0  0
 14 12  1  0  0  0  0
 15 14  1  0  0  0  0
 16 15  1  0  0  0  0
 39 15  1  0  0  0  0
 40 15  1  0  0  0  0
 17 16  1  0  0  0  0
 41 16  1  0  0  0  0
 42 16  1  0  0  0  0
 18 17  1  0  0  0  0
 21 17  1  0  0  0  0
 43 17  1  0  0  0  0
 19 18  1  0  0  0  0
 20 18  2  0  0  0  0
 44 19  1  0  0  0  0
 45 19  1  0  0  0  0
 46 21  1  0  0  0  0
 47 21  1  0  0  0  0
 23 22  2  0  0  0  0
 24 23  1  0  0  0  0
 48 23  1  0  0  0  0
 25 24  2  0  0  0  0
 49 24  1  0  0  0  0
 26 25  1  0  0  0  0
 50 25  1  0  0  0  0
 27 26  2  0  0  0  0
 51 26  1  0  0  0  0
 28 27  1  0  0  0  0
 29 28  1  0  0  0  0
 52 29  1  0  0  0  0
 53 29  1  0  0  0  0
 54 29  1  0  0  0  0
  7  3  1  0  0  0  0
 21 14  1  0  0  0  0
 27 22  1  0  0  0  0
M  END
>  <FittedScore>
-39.36

$$$$
