A71EV2A-x7238a_best-RMSD
  FITTED

 57 59     0  0  0  0  0  0  0999 V2000
    8.2231   16.3676   28.7701 C    0  0  0  0  0  0  0  0  0  0  0  0
    6.8620   15.8705   28.7810 O    0  0  0  0  0  0  0  0  0  0  0  0
    6.3768   15.1867   27.5935 C    0  0  0  0  0  0  0  0  0  0  0  0
    4.9618   15.7063   27.2197 C    0  0  0  0  0  0  0  0  0  0  0  0
    4.3704   14.8897   26.0321 C    0  0  0  0  0  0  0  0  0  0  0  0
    4.4198   13.3591   26.2922 C    0  0  0  0  0  0  0  0  0  0  0  0
    5.7844   12.9373   26.7081 N    0  0  0  0  0  0  0  0  0  0  0  0
    6.3563   11.7714   26.2368 C    0  0  0  0  0  0  0  0  0  0  0  0
    5.6947   10.6238   26.5661 N    0  0  0  0  0  0  0  0  0  0  0  0
    6.1842    9.4546   26.0863 C    0  0  0  0  0  0  0  0  0  0  0  0
    7.2873    9.3440   25.3056 N    0  0  0  0  0  0  0  0  0  0  0  0
    7.9841   10.4719   24.9907 C    0  0  0  0  0  0  0  0  0  0  0  0
    9.4457   10.3179   23.9601 S    0  0  0  0  0  0  0  0  0  0  0  0
    9.5655    8.5720   23.4761 C    0  0  0  0  0  0  0  0  0  0  0  0
    7.5502   11.7421   25.4562 C    0  0  0  0  0  0  0  0  0  0  0  0
    8.3447   13.0114   25.0824 C    0  0  0  0  0  0  0  0  0  0  0  0
    8.0994   13.5501   23.6616 C    0  0  0  0  0  0  0  0  0  0  0  0
    7.3177   12.9600   22.9298 O    0  0  0  0  0  0  0  0  0  0  0  0
    8.8273   14.6384   23.2174 N    0  0  0  0  0  0  0  0  0  0  0  0
    9.7274   15.5119   24.0558 C    0  0  0  0  0  0  0  0  0  0  0  0
   11.1838   15.6175   23.5171 C    0  0  0  0  0  0  0  0  0  0  0  0
   11.2058   16.0933   22.0443 C    0  0  0  0  0  0  0  0  0  0  0  0
   10.2552   15.2160   21.1775 C    0  0  0  0  0  0  0  0  0  0  0  0
   10.2435   15.7220   19.7396 C    0  0  0  0  0  0  0  0  0  0  0  0
   10.8153   14.8956   18.8440 N    0  0  0  0  0  0  0  0  0  0  0  0
    9.7016   16.7539   19.3827 O    0  0  0  0  0  0  0  0  0  0  0  0
    8.8207   15.1192   21.7967 C    0  0  0  0  0  0  0  0  0  0  0  0
    6.3765   13.6518   27.8625 C    0  0  0  0  0  0  0  0  0  0  0  0
    8.4312   16.8643   29.7167 H    0  0  0  0  0  0  0  0  0  0  0  0
    8.3410   17.0888   27.9579 H    0  0  0  0  0  0  0  0  0  0  0  0
    8.9364   15.5517   28.6370 H    0  0  0  0  0  0  0  0  0  0  0  0
    7.0264   15.4307   26.7474 H    0  0  0  0  0  0  0  0  0  0  0  0
    5.0227   16.7599   26.9331 H    0  0  0  0  0  0  0  0  0  0  0  0
    4.2923   15.6457   28.0828 H    0  0  0  0  0  0  0  0  0  0  0  0
    4.9218   15.1200   25.1144 H    0  0  0  0  0  0  0  0  0  0  0  0
    3.3336   15.1935   25.8645 H    0  0  0  0  0  0  0  0  0  0  0  0
    4.0998   12.8445   25.3795 H    0  0  0  0  0  0  0  0  0  0  0  0
    3.6859   13.1001   27.0607 H    0  0  0  0  0  0  0  0  0  0  0  0
    5.6410    8.5438   26.3307 H    0  0  0  0  0  0  0  0  0  0  0  0
    9.6337    7.9481   24.3683 H    0  0  0  0  0  0  0  0  0  0  0  0
   10.4548    8.4233   22.8641 H    0  0  0  0  0  0  0  0  0  0  0  0
    8.6799    8.2984   22.9030 H    0  0  0  0  0  0  0  0  0  0  0  0
    9.4108   12.8257   25.2219 H    0  0  0  0  0  0  0  0  0  0  0  0
    8.1484   13.8069   25.7798 H    0  0  0  0  0  0  0  0  0  0  0  0
    9.8065   15.2009   25.0949 H    0  0  0  0  0  0  0  0  0  0  0  0
    9.2901   16.5150   24.1041 H    0  0  0  0  0  0  0  0  0  0  0  0
   11.6870   14.6468   23.5901 H    0  0  0  0  0  0  0  0  0  0  0  0
   11.7567   16.3170   24.1308 H    0  0  0  0  0  0  0  0  0  0  0  0
   12.2259   16.0267   21.6569 H    0  0  0  0  0  0  0  0  0  0  0  0
   10.9093   17.1467   21.9906 H    0  0  0  0  0  0  0  0  0  0  0  0
   10.6588   14.1949   21.2017 H    0  0  0  0  0  0  0  0  0  0  0  0
   11.0961   13.9597   19.1242 H    0  0  0  0  0  0  0  0  0  0  0  0
   10.8325   15.1584   17.8633 H    0  0  0  0  0  0  0  0  0  0  0  0
    8.2262   14.4750   21.1422 H    0  0  0  0  0  0  0  0  0  0  0  0
    8.3323   16.0986   21.7525 H    0  0  0  0  0  0  0  0  0  0  0  0
    7.4024   13.3264   28.0578 H    0  0  0  0  0  0  0  0  0  0  0  0
    5.8164   13.4324   28.7767 H    0  0  0  0  0  0  0  0  0  0  0  0
 16 17  1  0  0  0  0
 15 16  1  0  0  0  0
 12 15  2  0  0  0  0
 11 12  1  0  0  0  0
 10 11  2  0  0  0  0
  9 10  1  0  0  0  0
  8  9  2  0  0  0  0
  7  8  1  0  0  0  0
  6  7  1  0  0  0  0
  5  6  1  0  0  0  0
  4  5  1  0  0  0  0
  3  4  1  0  0  0  0
  2  3  1  0  0  0  0
  1  2  1  0  0  0  0
 29  1  1  0  0  0  0
 30  1  1  0  0  0  0
 31  1  1  0  0  0  0
 32  3  1  0  0  0  0
 33  4  1  0  0  0  0
 34  4  1  0  0  0  0
 35  5  1  0  0  0  0
 36  5  1  0  0  0  0
 37  6  1  0  0  0  0
 38  6  1  0  0  0  0
 28  7  1  0  0  0  0
 39 10  1  0  0  0  0
 13 12  1  0  0  0  0
 14 13  1  0  0  0  0
 40 14  1  0  0  0  0
 41 14  1  0  0  0  0
 42 14  1  0  0  0  0
 43 16  1  0  0  0  0
 44 16  1  0  0  0  0
 18 17  2  0  0  0  0
 19 17  1  0  0  0  0
 20 19  1  0  0  0  0
 21 20  1  0  0  0  0
 45 20  1  0  0  0  0
 46 20  1  0  0  0  0
 22 21  1  0  0  0  0
 47 21  1  0  0  0  0
 48 21  1  0  0  0  0
 23 22  1  0  0  0  0
 49 22  1  0  0  0  0
 50 22  1  0  0  0  0
 24 23  1  0  0  0  0
 27 23  1  0  0  0  0
 51 23  1  0  0  0  0
 25 24  1  0  0  0  0
 26 24  2  0  0  0  0
 52 25  1  0  0  0  0
 53 25  1  0  0  0  0
 54 27  1  0  0  0  0
 55 27  1  0  0  0  0
 56 28  1  0  0  0  0
 57 28  1  0  0  0  0
 15  8  1  0  0  0  0
 27 19  1  0  0  0  0
 28  3  1  0  0  0  0
M  END
>  <FittedScore>
-32.53

$$$$
