A71EV2A-x7238a_lowest-energy
  FITTED

 57 59     0  0  0  0  0  0  0999 V2000
    0.7697   13.3097   26.2936 C    0  0  0  0  0  0  0  0  0  0  0  0
    2.1284   13.7556   26.0210 O    0  0  0  0  0  0  0  0  0  0  0  0
    3.2249   13.1860   26.7902 C    0  0  0  0  0  0  0  0  0  0  0  0
    3.3002   13.8002   28.2285 C    0  0  0  0  0  0  0  0  0  0  0  0
    4.5957   13.3810   28.9871 C    0  0  0  0  0  0  0  0  0  0  0  0
    5.8907   13.5029   28.1285 C    0  0  0  0  0  0  0  0  0  0  0  0
    5.6894   12.9351   26.7723 N    0  0  0  0  0  0  0  0  0  0  0  0
    6.3159   11.7757   26.3627 C    0  0  0  0  0  0  0  0  0  0  0  0
    5.7028   10.6143   26.7284 N    0  0  0  0  0  0  0  0  0  0  0  0
    6.2007    9.4581   26.2302 C    0  0  0  0  0  0  0  0  0  0  0  0
    7.2758    9.3667   25.4000 N    0  0  0  0  0  0  0  0  0  0  0  0
    7.9347   10.5137   25.0647 C    0  0  0  0  0  0  0  0  0  0  0  0
    9.3642   10.3868   23.9931 S    0  0  0  0  0  0  0  0  0  0  0  0
    9.5838    8.6372   23.5454 C    0  0  0  0  0  0  0  0  0  0  0  0
    7.4813   11.7751   25.5445 C    0  0  0  0  0  0  0  0  0  0  0  0
    8.2213   13.0812   25.1779 C    0  0  0  0  0  0  0  0  0  0  0  0
    7.9935   13.5870   23.7414 C    0  0  0  0  0  0  0  0  0  0  0  0
    7.2539   12.9645   23.0011 O    0  0  0  0  0  0  0  0  0  0  0  0
    8.7047   14.6857   23.2890 N    0  0  0  0  0  0  0  0  0  0  0  0
    9.6615   15.5239   24.0948 C    0  0  0  0  0  0  0  0  0  0  0  0
   11.1151   15.4819   23.5462 C    0  0  0  0  0  0  0  0  0  0  0  0
   11.1748   15.9081   22.0562 C    0  0  0  0  0  0  0  0  0  0  0  0
   10.1214   15.1356   21.2094 C    0  0  0  0  0  0  0  0  0  0  0  0
   10.1252   15.6674   19.7755 C    0  0  0  0  0  0  0  0  0  0  0  0
   10.7181   14.8732   18.8637 N    0  0  0  0  0  0  0  0  0  0  0  0
    9.6053   16.7136   19.4244 O    0  0  0  0  0  0  0  0  0  0  0  0
    8.6993   15.1617   21.8661 C    0  0  0  0  0  0  0  0  0  0  0  0
    4.5404   13.4581   26.0032 C    0  0  0  0  0  0  0  0  0  0  0  0
    0.4364   13.6639   27.2711 H    0  0  0  0  0  0  0  0  0  0  0  0
    0.7017   12.2177   26.2629 H    0  0  0  0  0  0  0  0  0  0  0  0
    0.1027   13.7174   25.5318 H    0  0  0  0  0  0  0  0  0  0  0  0
    3.0734   12.1016   26.8664 H    0  0  0  0  0  0  0  0  0  0  0  0
    2.4358   13.4742   28.8153 H    0  0  0  0  0  0  0  0  0  0  0  0
    3.2447   14.8923   28.1704 H    0  0  0  0  0  0  0  0  0  0  0  0
    4.4895   12.3528   29.3419 H    0  0  0  0  0  0  0  0  0  0  0  0
    4.6995   14.0042   29.8794 H    0  0  0  0  0  0  0  0  0  0  0  0
    6.7134   13.0070   28.6529 H    0  0  0  0  0  0  0  0  0  0  0  0
    6.1783   14.5571   28.0534 H    0  0  0  0  0  0  0  0  0  0  0  0
    5.6942    8.5379   26.5132 H    0  0  0  0  0  0  0  0  0  0  0  0
    8.6868    8.2626   23.0504 H    0  0  0  0  0  0  0  0  0  0  0  0
    9.7719    8.0590   24.4527 H    0  0  0  0  0  0  0  0  0  0  0  0
   10.4360    8.5219   22.8697 H    0  0  0  0  0  0  0  0  0  0  0  0
    9.2882   12.9199   25.3519 H    0  0  0  0  0  0  0  0  0  0  0  0
    7.9549   13.8776   25.8748 H    0  0  0  0  0  0  0  0  0  0  0  0
    9.7047   15.2506   25.1461 H    0  0  0  0  0  0  0  0  0  0  0  0
    9.3098   16.5603   24.0992 H    0  0  0  0  0  0  0  0  0  0  0  0
   11.5103   14.4671   23.6548 H    0  0  0  0  0  0  0  0  0  0  0  0
   11.7551   16.1424   24.1387 H    0  0  0  0  0  0  0  0  0  0  0  0
   12.1734   15.7031   21.6611 H    0  0  0  0  0  0  0  0  0  0  0  0
   11.0130   16.9870   21.9752 H    0  0  0  0  0  0  0  0  0  0  0  0
   10.4305   14.0785   21.1917 H    0  0  0  0  0  0  0  0  0  0  0  0
   10.7063   15.1450   17.8912 H    0  0  0  0  0  0  0  0  0  0  0  0
   10.9883   13.9239   19.1115 H    0  0  0  0  0  0  0  0  0  0  0  0
    8.0267   14.5801   21.2288 H    0  0  0  0  0  0  0  0  0  0  0  0
    8.2981   16.1798   21.8371 H    0  0  0  0  0  0  0  0  0  0  0  0
    4.4710   12.9869   25.0175 H    0  0  0  0  0  0  0  0  0  0  0  0
    4.6612   14.5277   25.8117 H    0  0  0  0  0  0  0  0  0  0  0  0
 16 17  1  0  0  0  0
 15 16  1  0  0  0  0
 12 15  2  0  0  0  0
 11 12  1  0  0  0  0
 10 11  2  0  0  0  0
  9 10  1  0  0  0  0
  8  9  2  0  0  0  0
  7  8  1  0  0  0  0
  6  7  1  0  0  0  0
  5  6  1  0  0  0  0
  4  5  1  0  0  0  0
  3  4  1  0  0  0  0
  2  3  1  0  0  0  0
  1  2  1  0  0  0  0
 29  1  1  0  0  0  0
 30  1  1  0  0  0  0
 31  1  1  0  0  0  0
 32  3  1  0  0  0  0
 33  4  1  0  0  0  0
 34  4  1  0  0  0  0
 35  5  1  0  0  0  0
 36  5  1  0  0  0  0
 37  6  1  0  0  0  0
 38  6  1  0  0  0  0
 28  7  1  0  0  0  0
 39 10  1  0  0  0  0
 13 12  1  0  0  0  0
 14 13  1  0  0  0  0
 40 14  1  0  0  0  0
 41 14  1  0  0  0  0
 42 14  1  0  0  0  0
 43 16  1  0  0  0  0
 44 16  1  0  0  0  0
 18 17  2  0  0  0  0
 19 17  1  0  0  0  0
 20 19  1  0  0  0  0
 21 20  1  0  0  0  0
 45 20  1  0  0  0  0
 46 20  1  0  0  0  0
 22 21  1  0  0  0  0
 47 21  1  0  0  0  0
 48 21  1  0  0  0  0
 23 22  1  0  0  0  0
 49 22  1  0  0  0  0
 50 22  1  0  0  0  0
 24 23  1  0  0  0  0
 27 23  1  0  0  0  0
 51 23  1  0  0  0  0
 25 24  1  0  0  0  0
 26 24  2  0  0  0  0
 52 25  1  0  0  0  0
 53 25  1  0  0  0  0
 54 27  1  0  0  0  0
 55 27  1  0  0  0  0
 56 28  1  0  0  0  0
 57 28  1  0  0  0  0
 15  8  1  0  0  0  0
 27 19  1  0  0  0  0
 28  3  1  0  0  0  0
M  END
>  <FittedScore>
-33.04

$$$$
