A71EV2A-x4311a_lowest-energy
  FITTED

 47 48     0  0  0  0  0  0  0999 V2000
    9.7297   16.6926   19.1093 O    0  0  0  0  0  0  0  0  0  0  0  0
   10.1586   15.6365   19.5398 C    0  0  0  0  0  0  0  0  0  0  0  0
   10.6653   14.7082   18.7033 N    0  0  0  0  0  0  0  0  0  0  0  0
   10.0810   15.2314   21.0074 C    0  0  0  0  0  0  0  0  0  0  0  0
   11.0779   16.0530   21.8837 C    0  0  0  0  0  0  0  0  0  0  0  0
   10.9075   15.7396   23.3963 C    0  0  0  0  0  0  0  0  0  0  0  0
    9.4200   15.7544   23.8410 C    0  0  0  0  0  0  0  0  0  0  0  0
    8.6237   15.3218   21.5635 C    0  0  0  0  0  0  0  0  0  0  0  0
    8.5707   14.8635   22.9842 N    0  0  0  0  0  0  0  0  0  0  0  0
    7.9550   13.6961   23.3622 C    0  0  0  0  0  0  0  0  0  0  0  0
    7.1678   13.1097   22.6444 O    0  0  0  0  0  0  0  0  0  0  0  0
    8.4214   13.0931   24.4843 N    0  0  0  0  0  0  0  0  0  0  0  0
    8.1747   11.7362   24.8603 C    0  0  0  0  0  0  0  0  0  0  0  0
    7.1379   11.3272   25.7595 C    0  0  0  0  0  0  0  0  0  0  0  0
    6.2523   12.3351   26.5966 C    0  0  0  0  0  0  0  0  0  0  0  0
    5.4218   11.6543   27.7528 C    0  0  0  0  0  0  0  0  0  0  0  0
    5.2067   13.0500   25.6763 C    0  0  0  0  0  0  0  0  0  0  0  0
    7.0934   13.4518   27.3176 C    0  0  0  0  0  0  0  0  0  0  0  0
    8.9693   10.7961   24.1769 C    0  0  0  0  0  0  0  0  0  0  0  0
    8.6995    9.4334   24.2780 C    0  0  0  0  0  0  0  0  0  0  0  0
    7.6458    9.0063   25.0846 C    0  0  0  0  0  0  0  0  0  0  0  0
    6.8931    9.9287   25.8202 C    0  0  0  0  0  0  0  0  0  0  0  0
   10.6579   14.8745   17.7041 H    0  0  0  0  0  0  0  0  0  0  0  0
   10.8800   13.7695   19.0354 H    0  0  0  0  0  0  0  0  0  0  0  0
   10.3831   14.1795   21.0977 H    0  0  0  0  0  0  0  0  0  0  0  0
   12.1038   15.8197   21.5863 H    0  0  0  0  0  0  0  0  0  0  0  0
   10.9410   17.1261   21.7163 H    0  0  0  0  0  0  0  0  0  0  0  0
   11.3350   14.7565   23.6183 H    0  0  0  0  0  0  0  0  0  0  0  0
   11.4714   16.4684   23.9843 H    0  0  0  0  0  0  0  0  0  0  0  0
    9.3580   15.5010   24.9004 H    0  0  0  0  0  0  0  0  0  0  0  0
    9.0377   16.7790   23.7877 H    0  0  0  0  0  0  0  0  0  0  0  0
    7.9677   14.7432   20.9085 H    0  0  0  0  0  0  0  0  0  0  0  0
    8.2475   16.3478   21.4993 H    0  0  0  0  0  0  0  0  0  0  0  0
    9.2034   13.5184   24.9698 H    0  0  0  0  0  0  0  0  0  0  0  0
    4.6764   10.9517   27.3668 H    0  0  0  0  0  0  0  0  0  0  0  0
    4.8567   12.3755   28.3495 H    0  0  0  0  0  0  0  0  0  0  0  0
    6.0743   11.1063   28.4401 H    0  0  0  0  0  0  0  0  0  0  0  0
    5.6619   13.8034   25.0313 H    0  0  0  0  0  0  0  0  0  0  0  0
    4.4273   13.5674   26.2452 H    0  0  0  0  0  0  0  0  0  0  0  0
    4.7131   12.3274   25.0200 H    0  0  0  0  0  0  0  0  0  0  0  0
    6.5103   14.0233   28.0428 H    0  0  0  0  0  0  0  0  0  0  0  0
    7.4933   14.2042   26.6355 H    0  0  0  0  0  0  0  0  0  0  0  0
    7.9441   13.0091   27.8411 H    0  0  0  0  0  0  0  0  0  0  0  0
    9.7751   11.1177   23.5190 H    0  0  0  0  0  0  0  0  0  0  0  0
    9.2961    8.7151   23.7206 H    0  0  0  0  0  0  0  0  0  0  0  0
    7.4194    7.9436   25.1510 H    0  0  0  0  0  0  0  0  0  0  0  0
    6.1037    9.5015   26.4254 H    0  0  0  0  0  0  0  0  0  0  0  0
  9 10  1  0  0  0  0
  7  9  1  0  0  0  0
  6  7  1  0  0  0  0
  5  6  1  0  0  0  0
  4  5  1  0  0  0  0
  2  4  1  0  0  0  0
  1  2  2  0  0  0  0
  3  2  1  0  0  0  0
 23  3  1  0  0  0  0
 24  3  1  0  0  0  0
 25  4  1  0  0  0  0
 26  5  1  0  0  0  0
 27  5  1  0  0  0  0
 28  6  1  0  0  0  0
 29  6  1  0  0  0  0
 30  7  1  0  0  0  0
 31  7  1  0  0  0  0
  8  4  1  0  0  0  0
 32  8  1  0  0  0  0
 33  8  1  0  0  0  0
 11 10  2  0  0  0  0
 12 10  1  0  0  0  0
 34 12  1  0  0  0  0
 13 12  1  0  0  0  0
 14 13  1  0  0  0  0
 22 14  2  0  0  0  0
 15 14  1  0  0  0  0
 16 15  1  0  0  0  0
 35 16  1  0  0  0  0
 36 16  1  0  0  0  0
 37 16  1  0  0  0  0
 17 15  1  0  0  0  0
 38 17  1  0  0  0  0
 39 17  1  0  0  0  0
 40 17  1  0  0  0  0
 18 15  1  0  0  0  0
 41 18  1  0  0  0  0
 42 18  1  0  0  0  0
 43 18  1  0  0  0  0
 19 13  2  0  0  0  0
 44 19  1  0  0  0  0
 20 19  1  0  0  0  0
 45 20  1  0  0  0  0
 21 20  2  0  0  0  0
 46 21  1  0  0  0  0
 47 22  1  0  0  0  0
  9  8  1  0  0  0  0
 22 21  1  0  0  0  0
M  END
>  <FittedScore>
-39.31

$$$$
