A71EV2A-x4311a_best-RMSD
  FITTED

 47 48     0  0  0  0  0  0  0999 V2000
    9.6134   16.7114   19.0791 O    0  0  0  0  0  0  0  0  0  0  0  0
   10.1262   15.7029   19.5269 C    0  0  0  0  0  0  0  0  0  0  0  0
   10.6177   14.7461   18.7192 N    0  0  0  0  0  0  0  0  0  0  0  0
   10.0844   15.3293   21.0020 C    0  0  0  0  0  0  0  0  0  0  0  0
   10.9686   16.2903   21.8504 C    0  0  0  0  0  0  0  0  0  0  0  0
   10.8533   15.9562   23.3610 C    0  0  0  0  0  0  0  0  0  0  0  0
    9.3810   15.7687   23.8250 C    0  0  0  0  0  0  0  0  0  0  0  0
    8.6243   15.2747   21.5397 C    0  0  0  0  0  0  0  0  0  0  0  0
    8.6111   14.8132   22.9591 N    0  0  0  0  0  0  0  0  0  0  0  0
    8.0014   13.6499   23.3451 C    0  0  0  0  0  0  0  0  0  0  0  0
    7.1600   13.0976   22.6649 O    0  0  0  0  0  0  0  0  0  0  0  0
    8.4264   13.0850   24.5004 N    0  0  0  0  0  0  0  0  0  0  0  0
    7.9810   11.8406   25.0455 C    0  0  0  0  0  0  0  0  0  0  0  0
    6.9764   11.7393   26.0586 C    0  0  0  0  0  0  0  0  0  0  0  0
    6.3143   12.9925   26.7601 C    0  0  0  0  0  0  0  0  0  0  0  0
    5.4241   13.7877   25.7410 C    0  0  0  0  0  0  0  0  0  0  0  0
    7.3718   13.9808   27.3788 C    0  0  0  0  0  0  0  0  0  0  0  0
    5.3706   12.6379   27.9709 C    0  0  0  0  0  0  0  0  0  0  0  0
    8.5521   10.6988   24.4537 C    0  0  0  0  0  0  0  0  0  0  0  0
    8.0902    9.4298   24.7881 C    0  0  0  0  0  0  0  0  0  0  0  0
    7.0663    9.2955   25.7265 C    0  0  0  0  0  0  0  0  0  0  0  0
    6.5341   10.4221   26.3609 C    0  0  0  0  0  0  0  0  0  0  0  0
   10.8358   13.8176   19.0807 H    0  0  0  0  0  0  0  0  0  0  0  0
   10.6450   14.9120   17.7225 H    0  0  0  0  0  0  0  0  0  0  0  0
   10.5038   14.3232   21.1281 H    0  0  0  0  0  0  0  0  0  0  0  0
   12.0128   16.2157   21.5292 H    0  0  0  0  0  0  0  0  0  0  0  0
   10.6679   17.3305   21.6835 H    0  0  0  0  0  0  0  0  0  0  0  0
   11.4252   15.0462   23.5733 H    0  0  0  0  0  0  0  0  0  0  0  0
   11.3095   16.7624   23.9399 H    0  0  0  0  0  0  0  0  0  0  0  0
    9.3947   15.4711   24.8733 H    0  0  0  0  0  0  0  0  0  0  0  0
    8.8746   16.7384   23.8218 H    0  0  0  0  0  0  0  0  0  0  0  0
    8.0306   14.6360   20.8808 H    0  0  0  0  0  0  0  0  0  0  0  0
    8.1579   16.2614   21.4751 H    0  0  0  0  0  0  0  0  0  0  0  0
    9.1738   13.5284   25.0224 H    0  0  0  0  0  0  0  0  0  0  0  0
    4.8911   13.1046   25.0740 H    0  0  0  0  0  0  0  0  0  0  0  0
    6.0089   14.4604   25.1144 H    0  0  0  0  0  0  0  0  0  0  0  0
    4.6783   14.4205   26.2281 H    0  0  0  0  0  0  0  0  0  0  0  0
    7.9555   14.5180   26.6353 H    0  0  0  0  0  0  0  0  0  0  0  0
    8.0802   13.4405   28.0115 H    0  0  0  0  0  0  0  0  0  0  0  0
    6.9090   14.7631   27.9847 H    0  0  0  0  0  0  0  0  0  0  0  0
    4.9765   13.5235   28.4773 H    0  0  0  0  0  0  0  0  0  0  0  0
    5.8980   12.0489   28.7274 H    0  0  0  0  0  0  0  0  0  0  0  0
    4.4965   12.0661   27.6470 H    0  0  0  0  0  0  0  0  0  0  0  0
    9.3346   10.7908   23.7004 H    0  0  0  0  0  0  0  0  0  0  0  0
    8.5162    8.5544   24.3081 H    0  0  0  0  0  0  0  0  0  0  0  0
    6.6895    8.3062   25.9779 H    0  0  0  0  0  0  0  0  0  0  0  0
    5.7545   10.2208   27.0826 H    0  0  0  0  0  0  0  0  0  0  0  0
  9 10  1  0  0  0  0
  7  9  1  0  0  0  0
  6  7  1  0  0  0  0
  5  6  1  0  0  0  0
  4  5  1  0  0  0  0
  2  4  1  0  0  0  0
  1  2  2  0  0  0  0
  3  2  1  0  0  0  0
 23  3  1  0  0  0  0
 24  3  1  0  0  0  0
 25  4  1  0  0  0  0
 26  5  1  0  0  0  0
 27  5  1  0  0  0  0
 28  6  1  0  0  0  0
 29  6  1  0  0  0  0
 30  7  1  0  0  0  0
 31  7  1  0  0  0  0
  8  4  1  0  0  0  0
 32  8  1  0  0  0  0
 33  8  1  0  0  0  0
 11 10  2  0  0  0  0
 12 10  1  0  0  0  0
 34 12  1  0  0  0  0
 13 12  1  0  0  0  0
 14 13  1  0  0  0  0
 22 14  2  0  0  0  0
 15 14  1  0  0  0  0
 16 15  1  0  0  0  0
 35 16  1  0  0  0  0
 36 16  1  0  0  0  0
 37 16  1  0  0  0  0
 17 15  1  0  0  0  0
 38 17  1  0  0  0  0
 39 17  1  0  0  0  0
 40 17  1  0  0  0  0
 18 15  1  0  0  0  0
 41 18  1  0  0  0  0
 42 18  1  0  0  0  0
 43 18  1  0  0  0  0
 19 13  2  0  0  0  0
 44 19  1  0  0  0  0
 20 19  1  0  0  0  0
 45 20  1  0  0  0  0
 21 20  2  0  0  0  0
 46 21  1  0  0  0  0
 47 22  1  0  0  0  0
  9  8  1  0  0  0  0
 22 21  1  0  0  0  0
M  END
>  <FittedScore>
-38.49

$$$$
