A71EV2A-x7127a_best-RMSD
  FITTED

 60 63     0  0  0  0  0  0  0999 V2000
    9.2722    8.5971   23.2751 C    0  0  0  0  0  0  0  0  0  0  0  0
    9.4817   10.1223   24.2101 S    0  0  0  0  0  0  0  0  0  0  0  0
    7.9550   10.4633   25.0776 C    0  0  0  0  0  0  0  0  0  0  0  0
    7.1736    9.4126   25.4486 N    0  0  0  0  0  0  0  0  0  0  0  0
    6.0073    9.6842   26.0927 C    0  0  0  0  0  0  0  0  0  0  0  0
    5.5269   10.9312   26.3479 N    0  0  0  0  0  0  0  0  0  0  0  0
    6.2912   12.0077   25.9784 C    0  0  0  0  0  0  0  0  0  0  0  0
    5.7646   13.2806   26.2249 N    0  0  0  0  0  0  0  0  0  0  0  0
    5.5188   14.2858   25.1715 C    0  0  0  0  0  0  0  0  0  0  0  0
    4.4798   15.2621   25.7321 C    0  0  0  0  0  0  0  0  0  0  0  0
    4.6006   15.1129   27.2534 C    0  0  0  0  0  0  0  0  0  0  0  0
    5.0892   13.6596   27.4793 C    0  0  0  0  0  0  0  0  0  0  0  0
    6.0165   13.5000   28.7389 C    0  0  0  0  0  0  0  0  0  0  0  0
    5.3993   12.5823   29.7086 N    0  0  0  0  0  0  0  0  0  0  0  0
    5.6011   11.2345   29.7469 C    0  0  0  0  0  0  0  0  0  0  0  0
    4.6406   10.6952   30.5644 C    0  0  0  0  0  0  0  0  0  0  0  0
    3.8670   11.7502   31.0019 C    0  0  0  0  0  0  0  0  0  0  0  0
    4.3289   13.0410   30.4368 N    0  0  0  0  0  0  0  0  0  0  0  0
    7.5763   11.7995   25.3893 C    0  0  0  0  0  0  0  0  0  0  0  0
    8.5269   12.9638   25.0526 C    0  0  0  0  0  0  0  0  0  0  0  0
    8.4184   13.4276   23.5910 C    0  0  0  0  0  0  0  0  0  0  0  0
    7.5157   12.9932   22.8814 O    0  0  0  0  0  0  0  0  0  0  0  0
    9.2802   14.4047   23.1360 N    0  0  0  0  0  0  0  0  0  0  0  0
   10.2347   15.2171   23.9746 C    0  0  0  0  0  0  0  0  0  0  0  0
   11.6292   15.4452   23.3303 C    0  0  0  0  0  0  0  0  0  0  0  0
   11.5168   16.0439   21.9069 C    0  0  0  0  0  0  0  0  0  0  0  0
   10.5761   15.1567   21.0478 C    0  0  0  0  0  0  0  0  0  0  0  0
   10.4232   15.7144   19.6356 C    0  0  0  0  0  0  0  0  0  0  0  0
   11.2430   15.1863   18.7146 N    0  0  0  0  0  0  0  0  0  0  0  0
    9.6814   16.6285   19.3377 O    0  0  0  0  0  0  0  0  0  0  0  0
    9.1936   14.9540   21.7431 C    0  0  0  0  0  0  0  0  0  0  0  0
   10.1707    8.4078   22.6810 H    0  0  0  0  0  0  0  0  0  0  0  0
    8.4149    8.7197   22.6117 H    0  0  0  0  0  0  0  0  0  0  0  0
    9.1029    7.7554   23.9511 H    0  0  0  0  0  0  0  0  0  0  0  0
    5.4096    8.8421   26.4255 H    0  0  0  0  0  0  0  0  0  0  0  0
    5.1584   13.8297   24.2442 H    0  0  0  0  0  0  0  0  0  0  0  0
    6.4102   14.8658   24.9316 H    0  0  0  0  0  0  0  0  0  0  0  0
    3.4743   14.9904   25.3926 H    0  0  0  0  0  0  0  0  0  0  0  0
    4.6896   16.2890   25.4139 H    0  0  0  0  0  0  0  0  0  0  0  0
    3.6411   15.2885   27.7450 H    0  0  0  0  0  0  0  0  0  0  0  0
    5.3110   15.8592   27.6239 H    0  0  0  0  0  0  0  0  0  0  0  0
    4.1830   13.0507   27.5773 H    0  0  0  0  0  0  0  0  0  0  0  0
    6.2035   14.4621   29.2234 H    0  0  0  0  0  0  0  0  0  0  0  0
    7.0152   13.1443   28.4568 H    0  0  0  0  0  0  0  0  0  0  0  0
    6.3673   10.6864   29.2038 H    0  0  0  0  0  0  0  0  0  0  0  0
    4.4977    9.6464   30.8017 H    0  0  0  0  0  0  0  0  0  0  0  0
    3.0023   11.6827   31.6586 H    0  0  0  0  0  0  0  0  0  0  0  0
    9.5550   12.6713   25.2896 H    0  0  0  0  0  0  0  0  0  0  0  0
    8.3533   13.8033   25.7319 H    0  0  0  0  0  0  0  0  0  0  0  0
   10.4320   14.7834   24.9524 H    0  0  0  0  0  0  0  0  0  0  0  0
    9.7702   16.1890   24.1779 H    0  0  0  0  0  0  0  0  0  0  0  0
   12.1798   14.4986   23.2875 H    0  0  0  0  0  0  0  0  0  0  0  0
   12.2153   16.1189   23.9585 H    0  0  0  0  0  0  0  0  0  0  0  0
   12.5076   16.0931   21.4474 H    0  0  0  0  0  0  0  0  0  0  0  0
   11.1457   17.0739   21.9533 H    0  0  0  0  0  0  0  0  0  0  0  0
   11.0290   14.1575   20.9801 H    0  0  0  0  0  0  0  0  0  0  0  0
   11.1028   15.4091   17.7400 H    0  0  0  0  0  0  0  0  0  0  0  0
   11.9898   14.5515   18.9676 H    0  0  0  0  0  0  0  0  0  0  0  0
    8.6019   14.3111   21.0876 H    0  0  0  0  0  0  0  0  0  0  0  0
    8.6511   15.9036   21.7945 H    0  0  0  0  0  0  0  0  0  0  0  0
 19 20  1  0  0  0  0
  7 19  2  0  0  0  0
  6  7  1  0  0  0  0
  5  6  2  0  0  0  0
  4  5  1  0  0  0  0
  3  4  2  0  0  0  0
  2  3  1  0  0  0  0
  1  2  1  0  0  0  0
 32  1  1  0  0  0  0
 33  1  1  0  0  0  0
 34  1  1  0  0  0  0
 35  5  1  0  0  0  0
  8  7  1  0  0  0  0
  9  8  1  0  0  0  0
 10  9  1  0  0  0  0
 36  9  1  0  0  0  0
 37  9  1  0  0  0  0
 11 10  1  0  0  0  0
 38 10  1  0  0  0  0
 39 10  1  0  0  0  0
 12 11  1  0  0  0  0
 40 11  1  0  0  0  0
 41 11  1  0  0  0  0
 13 12  1  0  0  0  0
 42 12  1  0  0  0  0
 14 13  1  0  0  0  0
 43 13  1  0  0  0  0
 44 13  1  0  0  0  0
 15 14  1  0  0  0  0
 16 15  2  0  0  0  0
 45 15  1  0  0  0  0
 17 16  1  0  0  0  0
 46 16  1  0  0  0  0
 18 17  2  0  0  0  0
 47 17  1  0  0  0  0
 21 20  1  0  0  0  0
 48 20  1  0  0  0  0
 49 20  1  0  0  0  0
 22 21  2  0  0  0  0
 23 21  1  0  0  0  0
 24 23  1  0  0  0  0
 25 24  1  0  0  0  0
 50 24  1  0  0  0  0
 51 24  1  0  0  0  0
 26 25  1  0  0  0  0
 52 25  1  0  0  0  0
 53 25  1  0  0  0  0
 27 26  1  0  0  0  0
 54 26  1  0  0  0  0
 55 26  1  0  0  0  0
 28 27  1  0  0  0  0
 31 27  1  0  0  0  0
 56 27  1  0  0  0  0
 29 28  1  0  0  0  0
 30 28  2  0  0  0  0
 57 29  1  0  0  0  0
 58 29  1  0  0  0  0
 59 31  1  0  0  0  0
 60 31  1  0  0  0  0
 12  8  1  0  0  0  0
 18 14  1  0  0  0  0
 19  3  1  0  0  0  0
 31 23  1  0  0  0  0
M  END
>  <FittedScore>
-30.57

$$$$
