A71EV2A-x7127a_lowest-energy
  FITTED

 60 63     0  0  0  0  0  0  0999 V2000
    9.4609    8.7549   23.3346 C    0  0  0  0  0  0  0  0  0  0  0  0
    9.3961   10.4725   23.9374 S    0  0  0  0  0  0  0  0  0  0  0  0
    7.9499   10.5742   24.9903 C    0  0  0  0  0  0  0  0  0  0  0  0
    7.3135    9.4084   25.2861 N    0  0  0  0  0  0  0  0  0  0  0  0
    6.2236    9.4488   26.0911 C    0  0  0  0  0  0  0  0  0  0  0  0
    5.7009   10.5813   26.6212 N    0  0  0  0  0  0  0  0  0  0  0  0
    6.3080   11.7626   26.3238 C    0  0  0  0  0  0  0  0  0  0  0  0
    5.7099   12.8674   26.8864 N    0  0  0  0  0  0  0  0  0  0  0  0
    6.1757   13.4275   28.1574 C    0  0  0  0  0  0  0  0  0  0  0  0
    5.9043   14.9351   28.0495 C    0  0  0  0  0  0  0  0  0  0  0  0
    4.9645   15.1375   26.8428 C    0  0  0  0  0  0  0  0  0  0  0  0
    4.8189   13.7644   26.1341 C    0  0  0  0  0  0  0  0  0  0  0  0
    3.3682   13.1888   26.1696 C    0  0  0  0  0  0  0  0  0  0  0  0
    2.4130   13.9578   25.3529 N    0  0  0  0  0  0  0  0  0  0  0  0
    2.3925   13.9481   23.9876 C    0  0  0  0  0  0  0  0  0  0  0  0
    1.2203   14.5253   23.5758 C    0  0  0  0  0  0  0  0  0  0  0  0
    0.5426   14.8619   24.7290 C    0  0  0  0  0  0  0  0  0  0  0  0
    1.2973   14.4854   25.9505 N    0  0  0  0  0  0  0  0  0  0  0  0
    7.4719   11.8155   25.4991 C    0  0  0  0  0  0  0  0  0  0  0  0
    8.1975   13.1359   25.1622 C    0  0  0  0  0  0  0  0  0  0  0  0
    8.0432   13.5996   23.7037 C    0  0  0  0  0  0  0  0  0  0  0  0
    7.2866   12.9918   22.9635 O    0  0  0  0  0  0  0  0  0  0  0  0
    8.8153   14.6433   23.2371 N    0  0  0  0  0  0  0  0  0  0  0  0
    9.7598   15.4880   24.0497 C    0  0  0  0  0  0  0  0  0  0  0  0
   11.2188   15.4622   23.5183 C    0  0  0  0  0  0  0  0  0  0  0  0
   11.2788   15.8887   22.0314 C    0  0  0  0  0  0  0  0  0  0  0  0
   10.2691   15.0666   21.1774 C    0  0  0  0  0  0  0  0  0  0  0  0
   10.2708   15.5660   19.7341 C    0  0  0  0  0  0  0  0  0  0  0  0
   10.8375   14.7441   18.8319 N    0  0  0  0  0  0  0  0  0  0  0  0
    9.7619   16.6156   19.3801 O    0  0  0  0  0  0  0  0  0  0  0  0
    8.8357   15.0737   21.7981 C    0  0  0  0  0  0  0  0  0  0  0  0
    9.5642    8.0717   24.1786 H    0  0  0  0  0  0  0  0  0  0  0  0
   10.3175    8.6228   22.6699 H    0  0  0  0  0  0  0  0  0  0  0  0
    8.5461    8.5169   22.7848 H    0  0  0  0  0  0  0  0  0  0  0  0
    5.7379    8.5068   26.3301 H    0  0  0  0  0  0  0  0  0  0  0  0
    7.2418   13.2443   28.3287 H    0  0  0  0  0  0  0  0  0  0  0  0
    5.6274   13.0002   29.0014 H    0  0  0  0  0  0  0  0  0  0  0  0
    6.8419   15.4767   27.8963 H    0  0  0  0  0  0  0  0  0  0  0  0
    5.4449   15.3141   28.9664 H    0  0  0  0  0  0  0  0  0  0  0  0
    5.3834   15.8764   26.1538 H    0  0  0  0  0  0  0  0  0  0  0  0
    4.0046   15.5373   27.1855 H    0  0  0  0  0  0  0  0  0  0  0  0
    5.1541   13.8567   25.0952 H    0  0  0  0  0  0  0  0  0  0  0  0
    3.0335   13.0994   27.2111 H    0  0  0  0  0  0  0  0  0  0  0  0
    3.3929   12.1631   25.7885 H    0  0  0  0  0  0  0  0  0  0  0  0
    3.1757   13.5495   23.3452 H    0  0  0  0  0  0  0  0  0  0  0  0
    0.8981   14.6880   22.5508 H    0  0  0  0  0  0  0  0  0  0  0  0
   -0.4314   15.3448   24.7785 H    0  0  0  0  0  0  0  0  0  0  0  0
    9.2528   12.9928   25.4132 H    0  0  0  0  0  0  0  0  0  0  0  0
    7.8720   13.9517   25.8072 H    0  0  0  0  0  0  0  0  0  0  0  0
    9.7916   15.2230   25.1031 H    0  0  0  0  0  0  0  0  0  0  0  0
    9.3955   16.5215   24.0442 H    0  0  0  0  0  0  0  0  0  0  0  0
   11.6413   14.4595   23.6317 H    0  0  0  0  0  0  0  0  0  0  0  0
   11.8379   16.1406   24.1109 H    0  0  0  0  0  0  0  0  0  0  0  0
   12.2916   15.7341   21.6520 H    0  0  0  0  0  0  0  0  0  0  0  0
   11.0625   16.9596   21.9506 H    0  0  0  0  0  0  0  0  0  0  0  0
   10.6029   14.0202   21.2049 H    0  0  0  0  0  0  0  0  0  0  0  0
   11.1166   13.8029   19.1068 H    0  0  0  0  0  0  0  0  0  0  0  0
   10.8339   14.9969   17.8505 H    0  0  0  0  0  0  0  0  0  0  0  0
    8.2085   14.4463   21.1590 H    0  0  0  0  0  0  0  0  0  0  0  0
    8.3982   16.0749   21.7310 H    0  0  0  0  0  0  0  0  0  0  0  0
 19 20  1  0  0  0  0
  7 19  2  0  0  0  0
  6  7  1  0  0  0  0
  5  6  2  0  0  0  0
  4  5  1  0  0  0  0
  3  4  2  0  0  0  0
  2  3  1  0  0  0  0
  1  2  1  0  0  0  0
 32  1  1  0  0  0  0
 33  1  1  0  0  0  0
 34  1  1  0  0  0  0
 35  5  1  0  0  0  0
  8  7  1  0  0  0  0
  9  8  1  0  0  0  0
 10  9  1  0  0  0  0
 36  9  1  0  0  0  0
 37  9  1  0  0  0  0
 11 10  1  0  0  0  0
 38 10  1  0  0  0  0
 39 10  1  0  0  0  0
 12 11  1  0  0  0  0
 40 11  1  0  0  0  0
 41 11  1  0  0  0  0
 13 12  1  0  0  0  0
 42 12  1  0  0  0  0
 14 13  1  0  0  0  0
 43 13  1  0  0  0  0
 44 13  1  0  0  0  0
 15 14  1  0  0  0  0
 16 15  2  0  0  0  0
 45 15  1  0  0  0  0
 17 16  1  0  0  0  0
 46 16  1  0  0  0  0
 18 17  2  0  0  0  0
 47 17  1  0  0  0  0
 21 20  1  0  0  0  0
 48 20  1  0  0  0  0
 49 20  1  0  0  0  0
 22 21  2  0  0  0  0
 23 21  1  0  0  0  0
 24 23  1  0  0  0  0
 25 24  1  0  0  0  0
 50 24  1  0  0  0  0
 51 24  1  0  0  0  0
 26 25  1  0  0  0  0
 52 25  1  0  0  0  0
 53 25  1  0  0  0  0
 27 26  1  0  0  0  0
 54 26  1  0  0  0  0
 55 26  1  0  0  0  0
 28 27  1  0  0  0  0
 31 27  1  0  0  0  0
 56 27  1  0  0  0  0
 29 28  1  0  0  0  0
 30 28  2  0  0  0  0
 57 29  1  0  0  0  0
 58 29  1  0  0  0  0
 59 31  1  0  0  0  0
 60 31  1  0  0  0  0
 12  8  1  0  0  0  0
 18 14  1  0  0  0  0
 19  3  1  0  0  0  0
 31 23  1  0  0  0  0
M  END
>  <FittedScore>
-33.99

$$$$
