A71EV2A-x7558a_lowest-energy
  FITTED

 42 43     0  0  0  0  0  0  0999 V2000
    9.2931    8.8781   23.3729 C    0  0  0  0  0  0  0  0  0  0  0  0
    9.1994   10.5980   23.9594 S    0  0  0  0  0  0  0  0  0  0  0  0
    7.6954   10.7876   24.9298 C    0  0  0  0  0  0  0  0  0  0  0  0
    7.0003    9.6799   25.4498 C    0  0  0  0  0  0  0  0  0  0  0  0
    5.8846    9.8512   26.2827 C    0  0  0  0  0  0  0  0  0  0  0  0
    5.4312   11.1448   26.5867 C    0  0  0  0  0  0  0  0  0  0  0  0
    3.9607   11.3870   27.7763 BR   0  0  0  0  0  0  0  0  0  0  0  0
    6.0841   12.2618   26.0459 C    0  0  0  0  0  0  0  0  0  0  0  0
    7.2092   12.0852   25.2259 C    0  0  0  0  0  0  0  0  0  0  0  0
    7.8353   13.2252   24.7466 O    0  0  0  0  0  0  0  0  0  0  0  0
    7.8574   13.5979   23.4373 C    0  0  0  0  0  0  0  0  0  0  0  0
    7.1178   13.0757   22.6147 O    0  0  0  0  0  0  0  0  0  0  0  0
    8.8000   14.5446   23.1143 N    0  0  0  0  0  0  0  0  0  0  0  0
    8.8457   15.2067   21.7707 C    0  0  0  0  0  0  0  0  0  0  0  0
   10.2531   15.1218   21.1142 C    0  0  0  0  0  0  0  0  0  0  0  0
   10.3054   15.6975   19.7001 C    0  0  0  0  0  0  0  0  0  0  0  0
   10.9219   14.9139   18.8014 N    0  0  0  0  0  0  0  0  0  0  0  0
    9.7849   16.7340   19.3487 O    0  0  0  0  0  0  0  0  0  0  0  0
   11.3345   15.7605   22.0216 C    0  0  0  0  0  0  0  0  0  0  0  0
   11.3171   15.0814   23.4097 C    0  0  0  0  0  0  0  0  0  0  0  0
    9.8877   15.0361   24.0538 C    0  0  0  0  0  0  0  0  0  0  0  0
    9.4955   16.3833   24.7289 C    0  0  0  0  0  0  0  0  0  0  0  0
   10.3912   16.7164   25.7901 O    0  0  0  0  0  0  0  0  0  0  0  0
    8.3895    8.6246   22.8219 H    0  0  0  0  0  0  0  0  0  0  0  0
    9.4402    8.1936   24.2146 H    0  0  0  0  0  0  0  0  0  0  0  0
   10.1514    8.7787   22.7102 H    0  0  0  0  0  0  0  0  0  0  0  0
    7.3279    8.6682   25.2467 H    0  0  0  0  0  0  0  0  0  0  0  0
    5.3885    8.9747   26.6912 H    0  0  0  0  0  0  0  0  0  0  0  0
    5.7412   13.2717   26.2641 H    0  0  0  0  0  0  0  0  0  0  0  0
    8.5353   16.2500   21.8753 H    0  0  0  0  0  0  0  0  0  0  0  0
    8.1250   14.7686   21.0744 H    0  0  0  0  0  0  0  0  0  0  0  0
   10.4754   14.0469   21.0616 H    0  0  0  0  0  0  0  0  0  0  0  0
   10.9718   15.1898   17.8250 H    0  0  0  0  0  0  0  0  0  0  0  0
   11.2069   13.9648   19.0701 H    0  0  0  0  0  0  0  0  0  0  0  0
   11.1652   16.8364   22.1235 H    0  0  0  0  0  0  0  0  0  0  0  0
   12.3232   15.6316   21.5762 H    0  0  0  0  0  0  0  0  0  0  0  0
   12.0364   15.5825   24.0609 H    0  0  0  0  0  0  0  0  0  0  0  0
   11.6854   14.0555   23.3103 H    0  0  0  0  0  0  0  0  0  0  0  0
   10.0226   14.3125   24.8619 H    0  0  0  0  0  0  0  0  0  0  0  0
    8.4873   16.3192   25.1404 H    0  0  0  0  0  0  0  0  0  0  0  0
    9.4871   17.2056   24.0068 H    0  0  0  0  0  0  0  0  0  0  0  0
   10.1122   17.5704   26.1770 H    0  0  0  0  0  0  0  0  0  0  0  0
 10 11  1  0  0  0  0
  9 10  1  0  0  0  0
  8  9  2  0  0  0  0
  6  8  1  0  0  0  0
  5  6  2  0  0  0  0
  4  5  1  0  0  0  0
  3  4  2  0  0  0  0
  2  3  1  0  0  0  0
  1  2  1  0  0  0  0
 24  1  1  0  0  0  0
 25  1  1  0  0  0  0
 26  1  1  0  0  0  0
 27  4  1  0  0  0  0
 28  5  1  0  0  0  0
  7  6  1  0  0  0  0
 29  8  1  0  0  0  0
 12 11  2  0  0  0  0
 13 11  1  0  0  0  0
 14 13  1  0  0  0  0
 15 14  1  0  0  0  0
 30 14  1  0  0  0  0
 31 14  1  0  0  0  0
 16 15  1  0  0  0  0
 19 15  1  0  0  0  0
 32 15  1  0  0  0  0
 17 16  1  0  0  0  0
 18 16  2  0  0  0  0
 33 17  1  0  0  0  0
 34 17  1  0  0  0  0
 20 19  1  0  0  0  0
 35 19  1  0  0  0  0
 36 19  1  0  0  0  0
 21 20  1  0  0  0  0
 37 20  1  0  0  0  0
 38 20  1  0  0  0  0
 22 21  1  0  0  0  0
 39 21  1  0  0  0  0
 23 22  1  0  0  0  0
 40 22  1  0  0  0  0
 41 22  1  0  0  0  0
 42 23  1  0  0  0  0
  9  3  1  0  0  0  0
 21 13  1  0  0  0  0
M  END
>  <FittedScore>
-32.55

$$$$
