A71EV2A-x7558a_best-RMSD
  FITTED

 42 43     0  0  0  0  0  0  0999 V2000
    9.2414    8.8123   23.3966 C    0  0  0  0  0  0  0  0  0  0  0  0
    9.2233   10.5267   24.0028 S    0  0  0  0  0  0  0  0  0  0  0  0
    7.7355   10.7936   24.9593 C    0  0  0  0  0  0  0  0  0  0  0  0
    7.0013    9.7153   25.4909 C    0  0  0  0  0  0  0  0  0  0  0  0
    5.8733    9.9431   26.2926 C    0  0  0  0  0  0  0  0  0  0  0  0
    5.4556   11.2543   26.5589 C    0  0  0  0  0  0  0  0  0  0  0  0
    3.9555   11.5849   27.6858 BR   0  0  0  0  0  0  0  0  0  0  0  0
    6.1636   12.3400   26.0198 C    0  0  0  0  0  0  0  0  0  0  0  0
    7.2958   12.1124   25.2246 C    0  0  0  0  0  0  0  0  0  0  0  0
    7.9612   13.2216   24.7301 O    0  0  0  0  0  0  0  0  0  0  0  0
    7.9357   13.6014   23.4259 C    0  0  0  0  0  0  0  0  0  0  0  0
    7.1517   13.0944   22.6348 O    0  0  0  0  0  0  0  0  0  0  0  0
    8.8750   14.5410   23.0671 N    0  0  0  0  0  0  0  0  0  0  0  0
    8.9072   15.1510   21.7009 C    0  0  0  0  0  0  0  0  0  0  0  0
   10.3390   15.1912   21.0956 C    0  0  0  0  0  0  0  0  0  0  0  0
   10.3679   15.7012   19.6624 C    0  0  0  0  0  0  0  0  0  0  0  0
   10.8679   14.8456   18.7613 N    0  0  0  0  0  0  0  0  0  0  0  0
    9.8455   16.7346   19.2922 O    0  0  0  0  0  0  0  0  0  0  0  0
   11.3095   15.9906   22.0028 C    0  0  0  0  0  0  0  0  0  0  0  0
   11.3321   15.3458   23.4051 C    0  0  0  0  0  0  0  0  0  0  0  0
    9.8999   15.1422   24.0171 C    0  0  0  0  0  0  0  0  0  0  0  0
    9.3492   16.4378   24.6849 C    0  0  0  0  0  0  0  0  0  0  0  0
   10.1727   16.8729   25.7720 O    0  0  0  0  0  0  0  0  0  0  0  0
    9.3381    8.1001   24.2190 H    0  0  0  0  0  0  0  0  0  0  0  0
   10.1147    8.6986   22.7519 H    0  0  0  0  0  0  0  0  0  0  0  0
    8.3380    8.6018   22.8216 H    0  0  0  0  0  0  0  0  0  0  0  0
    7.3061    8.6895   25.3184 H    0  0  0  0  0  0  0  0  0  0  0  0
    5.3367    9.0874   26.6989 H    0  0  0  0  0  0  0  0  0  0  0  0
    5.8466   13.3594   26.2161 H    0  0  0  0  0  0  0  0  0  0  0  0
    8.4756   16.1555   21.7559 H    0  0  0  0  0  0  0  0  0  0  0  0
    8.2734   14.6079   20.9954 H    0  0  0  0  0  0  0  0  0  0  0  0
   10.6829   14.1483   21.1001 H    0  0  0  0  0  0  0  0  0  0  0  0
   10.8995   15.1083   17.7839 H    0  0  0  0  0  0  0  0  0  0  0  0
   11.1002   13.8877   19.0232 H    0  0  0  0  0  0  0  0  0  0  0  0
   11.0060   17.0428   22.0712 H    0  0  0  0  0  0  0  0  0  0  0  0
   12.3179   15.9820   21.5795 H    0  0  0  0  0  0  0  0  0  0  0  0
   11.9709   15.9433   24.0587 H    0  0  0  0  0  0  0  0  0  0  0  0
   11.8268   14.3741   23.3319 H    0  0  0  0  0  0  0  0  0  0  0  0
   10.0940   14.4335   24.8248 H    0  0  0  0  0  0  0  0  0  0  0  0
    8.3432   16.2584   25.0757 H    0  0  0  0  0  0  0  0  0  0  0  0
    9.2670   17.2537   23.9622 H    0  0  0  0  0  0  0  0  0  0  0  0
    9.8192   17.7185   26.1124 H    0  0  0  0  0  0  0  0  0  0  0  0
 10 11  1  0  0  0  0
  9 10  1  0  0  0  0
  8  9  2  0  0  0  0
  6  8  1  0  0  0  0
  5  6  2  0  0  0  0
  4  5  1  0  0  0  0
  3  4  2  0  0  0  0
  2  3  1  0  0  0  0
  1  2  1  0  0  0  0
 24  1  1  0  0  0  0
 25  1  1  0  0  0  0
 26  1  1  0  0  0  0
 27  4  1  0  0  0  0
 28  5  1  0  0  0  0
  7  6  1  0  0  0  0
 29  8  1  0  0  0  0
 12 11  2  0  0  0  0
 13 11  1  0  0  0  0
 14 13  1  0  0  0  0
 15 14  1  0  0  0  0
 30 14  1  0  0  0  0
 31 14  1  0  0  0  0
 16 15  1  0  0  0  0
 19 15  1  0  0  0  0
 32 15  1  0  0  0  0
 17 16  1  0  0  0  0
 18 16  2  0  0  0  0
 33 17  1  0  0  0  0
 34 17  1  0  0  0  0
 20 19  1  0  0  0  0
 35 19  1  0  0  0  0
 36 19  1  0  0  0  0
 21 20  1  0  0  0  0
 37 20  1  0  0  0  0
 38 20  1  0  0  0  0
 22 21  1  0  0  0  0
 39 21  1  0  0  0  0
 23 22  1  0  0  0  0
 40 22  1  0  0  0  0
 41 22  1  0  0  0  0
 42 23  1  0  0  0  0
  9  3  1  0  0  0  0
 21 13  1  0  0  0  0
M  END
>  <FittedScore>
-32.52

$$$$
