A71EV2A-x3623a_lowest-energy
  FITTED

 38 39     0  0  0  0  0  0  0999 V2000
    6.7291   15.7297   22.9373 O    0  0  0  0  0  0  0  0  0  0  0  0
    6.7125   14.3016   22.8192 S    0  0  0  0  0  0  0  0  0  0  0  0
    7.7724   13.6544   22.0974 O    0  0  0  0  0  0  0  0  0  0  0  0
    5.2260   13.7811   22.1724 N    0  0  0  0  0  0  0  0  0  0  0  0
    3.9777   14.5620   22.1154 C    0  0  0  0  0  0  0  0  0  0  0  0
    3.1607   14.2147   20.8773 C    0  0  0  0  0  0  0  0  0  0  0  0
    3.5019   13.1729   19.8800 N    0  0  0  0  0  0  0  0  0  0  0  0
    2.2935   13.1922   19.0568 C    0  0  0  0  0  0  0  0  0  0  0  0
    1.9625   14.8279   20.5788 O    0  0  0  0  0  0  0  0  0  0  0  0
    1.4266   14.1713   19.5026 C    0  0  0  0  0  0  0  0  0  0  0  0
    0.0522   14.4411   18.9273 C    0  0  0  0  0  0  0  0  0  0  0  0
    6.5712   13.6130   24.4610 C    0  0  0  0  0  0  0  0  0  0  0  0
    7.6576   13.9817   25.5155 C    0  0  0  0  0  0  0  0  0  0  0  0
    7.2114   13.4627   26.9049 C    0  0  0  0  0  0  0  0  0  0  0  0
    9.1041   13.5904   25.1821 C    0  0  0  0  0  0  0  0  0  0  0  0
    9.4182   12.3939   24.5035 C    0  0  0  0  0  0  0  0  0  0  0  0
   10.7393   12.1123   24.1445 C    0  0  0  0  0  0  0  0  0  0  0  0
   11.7734   12.9911   24.4945 C    0  0  0  0  0  0  0  0  0  0  0  0
   11.4848   14.1572   25.2115 C    0  0  0  0  0  0  0  0  0  0  0  0
   10.1588   14.4507   25.5564 C    0  0  0  0  0  0  0  0  0  0  0  0
    5.1049   12.8001   22.4340 H    0  0  0  0  0  0  0  0  0  0  0  0
    3.3699   14.3649   23.0011 H    0  0  0  0  0  0  0  0  0  0  0  0
    4.1715   15.6360   22.1070 H    0  0  0  0  0  0  0  0  0  0  0  0
    2.1330   12.5003   18.2333 H    0  0  0  0  0  0  0  0  0  0  0  0
   -0.6151   13.6022   19.1365 H    0  0  0  0  0  0  0  0  0  0  0  0
    0.1178   14.5729   17.8465 H    0  0  0  0  0  0  0  0  0  0  0  0
   -0.3792   15.3457   19.3606 H    0  0  0  0  0  0  0  0  0  0  0  0
    6.4727   12.5293   24.3553 H    0  0  0  0  0  0  0  0  0  0  0  0
    5.6042   13.9650   24.8292 H    0  0  0  0  0  0  0  0  0  0  0  0
    7.6278   15.0743   25.5864 H    0  0  0  0  0  0  0  0  0  0  0  0
    7.9130   13.7801   27.6793 H    0  0  0  0  0  0  0  0  0  0  0  0
    7.1673   12.3702   26.9180 H    0  0  0  0  0  0  0  0  0  0  0  0
    6.2271   13.8490   27.1772 H    0  0  0  0  0  0  0  0  0  0  0  0
    8.6452   11.6798   24.2294 H    0  0  0  0  0  0  0  0  0  0  0  0
   10.9644   11.2020   23.5931 H    0  0  0  0  0  0  0  0  0  0  0  0
   12.7990   12.7631   24.2155 H    0  0  0  0  0  0  0  0  0  0  0  0
   12.2841   14.8395   25.4917 H    0  0  0  0  0  0  0  0  0  0  0  0
    9.9475   15.3716   26.0958 H    0  0  0  0  0  0  0  0  0  0  0  0
  2  3  2  0  0  0  0
  4  2  1  0  0  0  0
 21  4  1  0  0  0  0
  1  2  2  0  0  0  0
  5  4  1  0  0  0  0
 22  5  1  0  0  0  0
 23  5  1  0  0  0  0
  6  5  1  0  0  0  0
  7  6  2  0  0  0  0
  8  7  1  0  0  0  0
 24  8  1  0  0  0  0
  9  6  1  0  0  0  0
 10  8  2  0  0  0  0
 11 10  1  0  0  0  0
 25 11  1  0  0  0  0
 26 11  1  0  0  0  0
 27 11  1  0  0  0  0
 12  2  1  0  0  0  0
 28 12  1  0  0  0  0
 29 12  1  0  0  0  0
 13 12  1  0  0  0  0
 14 13  1  0  0  0  0
 30 13  1  0  0  0  0
 31 14  1  0  0  0  0
 32 14  1  0  0  0  0
 33 14  1  0  0  0  0
 15 13  1  0  0  0  0
 20 15  2  0  0  0  0
 16 15  1  0  0  0  0
 34 16  1  0  0  0  0
 17 16  2  0  0  0  0
 35 17  1  0  0  0  0
 18 17  1  0  0  0  0
 36 18  1  0  0  0  0
 19 18  2  0  0  0  0
 37 19  1  0  0  0  0
 38 20  1  0  0  0  0
 10  9  1  0  0  0  0
 20 19  1  0  0  0  0
M  END
>  <FittedScore>
-29.57

$$$$
