A71EV2A-x3623a_best-RMSD
  FITTED

 38 39     0  0  0  0  0  0  0999 V2000
    7.7090   15.2875   22.1786 O    0  0  0  0  0  0  0  0  0  0  0  0
    6.6254   14.4628   22.6010 S    0  0  0  0  0  0  0  0  0  0  0  0
    6.4713   13.2299   21.9233 O    0  0  0  0  0  0  0  0  0  0  0  0
    5.1418   15.2829   22.4491 N    0  0  0  0  0  0  0  0  0  0  0  0
    3.8042   14.7206   22.6732 C    0  0  0  0  0  0  0  0  0  0  0  0
    3.1552   14.3256   21.3610 C    0  0  0  0  0  0  0  0  0  0  0  0
    1.7888   14.7077   20.9493 N    0  0  0  0  0  0  0  0  0  0  0  0
    1.6929   13.9867   19.6781 C    0  0  0  0  0  0  0  0  0  0  0  0
    3.7567   13.4993   20.4394 O    0  0  0  0  0  0  0  0  0  0  0  0
    2.8617   13.2924   19.4243 C    0  0  0  0  0  0  0  0  0  0  0  0
    3.1151   12.4095   18.2224 C    0  0  0  0  0  0  0  0  0  0  0  0
    6.7548   14.1739   24.3565 C    0  0  0  0  0  0  0  0  0  0  0  0
    8.1662   13.8964   24.9379 C    0  0  0  0  0  0  0  0  0  0  0  0
    8.2734   14.3364   26.4242 C    0  0  0  0  0  0  0  0  0  0  0  0
    8.5730   12.4574   24.6763 C    0  0  0  0  0  0  0  0  0  0  0  0
    9.5237   12.1663   23.6818 C    0  0  0  0  0  0  0  0  0  0  0  0
    9.8225   10.8357   23.3822 C    0  0  0  0  0  0  0  0  0  0  0  0
    9.1614    9.7938   24.0347 C    0  0  0  0  0  0  0  0  0  0  0  0
    8.1893   10.0802   25.0005 C    0  0  0  0  0  0  0  0  0  0  0  0
    7.9071   11.4058   25.3342 C    0  0  0  0  0  0  0  0  0  0  0  0
    5.2688   16.2912   22.5243 H    0  0  0  0  0  0  0  0  0  0  0  0
    3.8491   13.8323   23.3103 H    0  0  0  0  0  0  0  0  0  0  0  0
    3.1785   15.4436   23.2010 H    0  0  0  0  0  0  0  0  0  0  0  0
    0.8029   14.0128   19.0568 H    0  0  0  0  0  0  0  0  0  0  0  0
    2.7708   12.8946   17.3067 H    0  0  0  0  0  0  0  0  0  0  0  0
    2.5855   11.4609   18.3344 H    0  0  0  0  0  0  0  0  0  0  0  0
    4.1817   12.2028   18.1184 H    0  0  0  0  0  0  0  0  0  0  0  0
    6.0355   13.3989   24.6312 H    0  0  0  0  0  0  0  0  0  0  0  0
    6.3724   15.0935   24.8101 H    0  0  0  0  0  0  0  0  0  0  0  0
    8.8709   14.5575   24.4259 H    0  0  0  0  0  0  0  0  0  0  0  0
    9.2491   14.0578   26.8315 H    0  0  0  0  0  0  0  0  0  0  0  0
    7.5034   13.8788   27.0508 H    0  0  0  0  0  0  0  0  0  0  0  0
    8.1831   15.4221   26.5170 H    0  0  0  0  0  0  0  0  0  0  0  0
   10.0176   12.9637   23.1272 H    0  0  0  0  0  0  0  0  0  0  0  0
   10.5675   10.6100   22.6235 H    0  0  0  0  0  0  0  0  0  0  0  0
    9.3871    8.7619   23.7827 H    0  0  0  0  0  0  0  0  0  0  0  0
    7.6589    9.2716   25.4990 H    0  0  0  0  0  0  0  0  0  0  0  0
    7.1585   11.6085   26.0967 H    0  0  0  0  0  0  0  0  0  0  0  0
  2  3  2  0  0  0  0
  4  2  1  0  0  0  0
 21  4  1  0  0  0  0
  1  2  2  0  0  0  0
  5  4  1  0  0  0  0
 22  5  1  0  0  0  0
 23  5  1  0  0  0  0
  6  5  1  0  0  0  0
  7  6  2  0  0  0  0
  8  7  1  0  0  0  0
 24  8  1  0  0  0  0
  9  6  1  0  0  0  0
 10  8  2  0  0  0  0
 11 10  1  0  0  0  0
 25 11  1  0  0  0  0
 26 11  1  0  0  0  0
 27 11  1  0  0  0  0
 12  2  1  0  0  0  0
 28 12  1  0  0  0  0
 29 12  1  0  0  0  0
 13 12  1  0  0  0  0
 14 13  1  0  0  0  0
 30 13  1  0  0  0  0
 31 14  1  0  0  0  0
 32 14  1  0  0  0  0
 33 14  1  0  0  0  0
 15 13  1  0  0  0  0
 20 15  2  0  0  0  0
 16 15  1  0  0  0  0
 34 16  1  0  0  0  0
 17 16  2  0  0  0  0
 35 17  1  0  0  0  0
 18 17  1  0  0  0  0
 36 18  1  0  0  0  0
 19 18  2  0  0  0  0
 37 19  1  0  0  0  0
 38 20  1  0  0  0  0
 10  9  1  0  0  0  0
 20 19  1  0  0  0  0
M  END
>  <FittedScore>
-31.92

$$$$
