A71EV2A-x4317a_lowest-energy
  FITTED

 41 43     0  0  0  0  0  0  0999 V2000
    9.8892   16.6326   19.5120 O    0  0  0  0  0  0  0  0  0  0  0  0
   10.5383   15.6394   19.7748 C    0  0  0  0  0  0  0  0  0  0  0  0
   10.9037   14.8295   18.7652 N    0  0  0  0  0  0  0  0  0  0  0  0
   10.6521   15.0254   21.1749 C    0  0  0  0  0  0  0  0  0  0  0  0
    9.3113   14.6457   21.8042 C    0  0  0  0  0  0  0  0  0  0  0  0
   11.3389   15.8711   22.2527 C    0  0  0  0  0  0  0  0  0  0  0  0
   10.9238   15.1530   23.5513 C    0  0  0  0  0  0  0  0  0  0  0  0
   11.3723   15.7511   24.8603 C    0  0  0  0  0  0  0  0  0  0  0  0
   11.9511   14.4440   24.4050 C    0  0  0  0  0  0  0  0  0  0  0  0
    9.5518   14.5496   23.2548 N    0  0  0  0  0  0  0  0  0  0  0  0
    8.7368   13.9609   24.2015 C    0  0  0  0  0  0  0  0  0  0  0  0
    9.0652   13.8072   25.3625 O    0  0  0  0  0  0  0  0  0  0  0  0
    7.3337   13.4809   23.7956 C    0  0  0  0  0  0  0  0  0  0  0  0
    6.8670   12.2816   24.6381 C    0  0  0  0  0  0  0  0  0  0  0  0
    7.4412   10.9976   24.4682 C    0  0  0  0  0  0  0  0  0  0  0  0
    8.4849   10.8451   23.5530 O    0  0  0  0  0  0  0  0  0  0  0  0
    9.2432    9.6340   23.3351 C    0  0  0  0  0  0  0  0  0  0  0  0
    5.8966   12.4822   25.6387 C    0  0  0  0  0  0  0  0  0  0  0  0
    5.4484   11.4141   26.4229 C    0  0  0  0  0  0  0  0  0  0  0  0
    5.9496   10.1271   26.2007 C    0  0  0  0  0  0  0  0  0  0  0  0
    6.9375    9.9155   25.2272 C    0  0  0  0  0  0  0  0  0  0  0  0
   11.0924   13.8452   18.9592 H    0  0  0  0  0  0  0  0  0  0  0  0
   10.8276   15.1507   17.8075 H    0  0  0  0  0  0  0  0  0  0  0  0
   11.2462   14.1022   21.0966 H    0  0  0  0  0  0  0  0  0  0  0  0
    8.5322   15.3918   21.6139 H    0  0  0  0  0  0  0  0  0  0  0  0
    8.9975   13.6890   21.3790 H    0  0  0  0  0  0  0  0  0  0  0  0
   10.9908   16.9080   22.2382 H    0  0  0  0  0  0  0  0  0  0  0  0
   12.4221   15.8773   22.0941 H    0  0  0  0  0  0  0  0  0  0  0  0
   12.0166   16.6245   24.8267 H    0  0  0  0  0  0  0  0  0  0  0  0
   10.6801   15.7628   25.6929 H    0  0  0  0  0  0  0  0  0  0  0  0
   12.9900   14.4414   24.0813 H    0  0  0  0  0  0  0  0  0  0  0  0
   11.6641   13.5412   24.9380 H    0  0  0  0  0  0  0  0  0  0  0  0
    6.6532   14.3289   23.9061 H    0  0  0  0  0  0  0  0  0  0  0  0
    7.2641   13.1880   22.7474 H    0  0  0  0  0  0  0  0  0  0  0  0
    9.7647    9.3552   24.2564 H    0  0  0  0  0  0  0  0  0  0  0  0
    9.9812    9.8208   22.5485 H    0  0  0  0  0  0  0  0  0  0  0  0
    8.5885    8.8237   23.0068 H    0  0  0  0  0  0  0  0  0  0  0  0
    5.4973   13.4757   25.8232 H    0  0  0  0  0  0  0  0  0  0  0  0
    4.7159   11.5871   27.2056 H    0  0  0  0  0  0  0  0  0  0  0  0
    5.5869    9.2940   26.7989 H    0  0  0  0  0  0  0  0  0  0  0  0
    7.3179    8.9031   25.1011 H    0  0  0  0  0  0  0  0  0  0  0  0
 10 11  1  0  0  0  0
  5 10  1  0  0  0  0
  4  5  1  0  0  0  0
  2  4  1  0  0  0  0
  1  2  2  0  0  0  0
  3  2  1  0  0  0  0
 22  3  1  0  0  0  0
 23  3  1  0  0  0  0
 24  4  1  0  0  0  0
 25  5  1  0  0  0  0
 26  5  1  0  0  0  0
  6  4  1  0  0  0  0
 27  6  1  0  0  0  0
 28  6  1  0  0  0  0
  7  6  1  0  0  0  0
  9  7  1  0  0  0  0
  8  7  1  0  0  0  0
 29  8  1  0  0  0  0
 30  8  1  0  0  0  0
 31  9  1  0  0  0  0
 32  9  1  0  0  0  0
 12 11  2  0  0  0  0
 13 11  1  0  0  0  0
 33 13  1  0  0  0  0
 34 13  1  0  0  0  0
 14 13  1  0  0  0  0
 15 14  1  0  0  0  0
 21 15  2  0  0  0  0
 16 15  1  0  0  0  0
 17 16  1  0  0  0  0
 35 17  1  0  0  0  0
 36 17  1  0  0  0  0
 37 17  1  0  0  0  0
 18 14  2  0  0  0  0
 38 18  1  0  0  0  0
 19 18  1  0  0  0  0
 39 19  1  0  0  0  0
 20 19  2  0  0  0  0
 40 20  1  0  0  0  0
 41 21  1  0  0  0  0
  9  8  1  0  0  0  0
 10  7  1  0  0  0  0
 21 20  1  0  0  0  0
M  END
>  <FittedScore>
-32.55

$$$$
