A71EV2A-x6730a_best-RMSD
  FITTED

 42 44     0  0  0  0  0  0  0999 V2000
    8.2038    9.5404   24.1146 C    0  0  0  0  0  0  0  0  0  0  0  0
    7.7741   10.9943   24.1379 C    0  0  0  0  0  0  0  0  0  0  0  0
    8.7584   12.1783   23.2658 S    0  0  0  0  0  0  0  0  0  0  0  0
    7.6414   13.4622   23.7409 C    0  0  0  0  0  0  0  0  0  0  0  0
    7.8658   14.9644   23.6169 C    0  0  0  0  0  0  0  0  0  0  0  0
    6.6715   15.7361   22.9732 C    0  0  0  0  0  0  0  0  0  0  0  0
    9.2397   15.2421   23.0603 N    0  0  0  0  0  0  0  0  0  0  0  0
    9.2766   15.3396   21.5730 C    0  0  0  0  0  0  0  0  0  0  0  0
   10.6931   15.2937   20.9490 C    0  0  0  0  0  0  0  0  0  0  0  0
   10.6511   15.7757   19.5124 C    0  0  0  0  0  0  0  0  0  0  0  0
   11.0490   14.8856   18.5880 N    0  0  0  0  0  0  0  0  0  0  0  0
   10.1411   16.8289   19.1923 O    0  0  0  0  0  0  0  0  0  0  0  0
   11.6831   16.1488   21.7658 C    0  0  0  0  0  0  0  0  0  0  0  0
   11.7391   15.5905   23.2076 C    0  0  0  0  0  0  0  0  0  0  0  0
   10.3685   15.3149   23.8414 C    0  0  0  0  0  0  0  0  0  0  0  0
   10.3053   15.0827   25.0325 O    0  0  0  0  0  0  0  0  0  0  0  0
    6.4437   12.9580   24.3895 N    0  0  0  0  0  0  0  0  0  0  0  0
    6.6471   11.5557   24.7631 C    0  0  0  0  0  0  0  0  0  0  0  0
    5.7128   10.9937   25.6579 C    0  0  0  0  0  0  0  0  0  0  0  0
    5.6075    9.6901   26.1295 C    0  0  0  0  0  0  0  0  0  0  0  0
    4.5246    9.6365   26.9870 C    0  0  0  0  0  0  0  0  0  0  0  0
    3.9772   10.9014   27.0468 C    0  0  0  0  0  0  0  0  0  0  0  0
    4.7006   11.7469   26.2397 O    0  0  0  0  0  0  0  0  0  0  0  0
    8.4816    9.2040   25.1168 H    0  0  0  0  0  0  0  0  0  0  0  0
    9.0745    9.3992   23.4718 H    0  0  0  0  0  0  0  0  0  0  0  0
    7.4067    8.9101   23.7256 H    0  0  0  0  0  0  0  0  0  0  0  0
    7.8569   15.3462   24.6417 H    0  0  0  0  0  0  0  0  0  0  0  0
    6.8934   16.8017   22.8780 H    0  0  0  0  0  0  0  0  0  0  0  0
    5.7785   15.6437   23.5955 H    0  0  0  0  0  0  0  0  0  0  0  0
    6.4221   15.3377   21.9870 H    0  0  0  0  0  0  0  0  0  0  0  0
    8.7921   16.2819   21.3064 H    0  0  0  0  0  0  0  0  0  0  0  0
    8.6859   14.5450   21.1047 H    0  0  0  0  0  0  0  0  0  0  0  0
   11.0259   14.2503   20.9868 H    0  0  0  0  0  0  0  0  0  0  0  0
   11.2481   13.9254   18.8516 H    0  0  0  0  0  0  0  0  0  0  0  0
   11.0075   15.1368   17.6087 H    0  0  0  0  0  0  0  0  0  0  0  0
   11.3761   17.2010   21.7835 H    0  0  0  0  0  0  0  0  0  0  0  0
   12.6759   16.1192   21.3086 H    0  0  0  0  0  0  0  0  0  0  0  0
   12.2924   16.3018   23.8261 H    0  0  0  0  0  0  0  0  0  0  0  0
   12.3202   14.6629   23.1949 H    0  0  0  0  0  0  0  0  0  0  0  0
    6.2278    8.8364   25.8872 H    0  0  0  0  0  0  0  0  0  0  0  0
    4.1633    8.7573   27.5166 H    0  0  0  0  0  0  0  0  0  0  0  0
    3.1062   11.1934   27.6306 H    0  0  0  0  0  0  0  0  0  0  0  0
  3  4  1  0  0  0  0
  2  3  1  0  0  0  0
  1  2  1  0  0  0  0
 24  1  1  0  0  0  0
 25  1  1  0  0  0  0
 26  1  1  0  0  0  0
  5  4  1  0  0  0  0
 17  4  2  0  0  0  0
  6  5  1  0  0  0  0
  7  5  1  0  0  0  0
 27  5  1  0  0  0  0
 28  6  1  0  0  0  0
 29  6  1  0  0  0  0
 30  6  1  0  0  0  0
  8  7  1  0  0  0  0
  9  8  1  0  0  0  0
 31  8  1  0  0  0  0
 32  8  1  0  0  0  0
 10  9  1  0  0  0  0
 13  9  1  0  0  0  0
 33  9  1  0  0  0  0
 11 10  1  0  0  0  0
 12 10  2  0  0  0  0
 34 11  1  0  0  0  0
 35 11  1  0  0  0  0
 14 13  1  0  0  0  0
 36 13  1  0  0  0  0
 37 13  1  0  0  0  0
 15 14  1  0  0  0  0
 38 14  1  0  0  0  0
 39 14  1  0  0  0  0
 16 15  2  0  0  0  0
 18 17  1  0  0  0  0
 19 18  1  0  0  0  0
 20 19  2  0  0  0  0
 21 20  1  0  0  0  0
 40 20  1  0  0  0  0
 22 21  2  0  0  0  0
 41 21  1  0  0  0  0
 23 22  1  0  0  0  0
 42 22  1  0  0  0  0
 15  7  1  0  0  0  0
 18  2  2  0  0  0  0
 23 19  1  0  0  0  0
M  END
>  <FittedScore>
-38.20

$$$$
