A71EV2A-x4986a_lowest-energy
  FITTED

 50 52     0  0  0  0  0  0  0999 V2000
    9.7536   16.7622   19.2888 O    0  0  0  0  0  0  0  0  0  0  0  0
   10.2833   15.7357   19.6593 C    0  0  0  0  0  0  0  0  0  0  0  0
   10.8811   14.9333   18.7587 N    0  0  0  0  0  0  0  0  0  0  0  0
   10.1812   15.2031   21.0879 C    0  0  0  0  0  0  0  0  0  0  0  0
   11.2375   15.8741   22.0101 C    0  0  0  0  0  0  0  0  0  0  0  0
   11.0852   15.3946   23.4806 C    0  0  0  0  0  0  0  0  0  0  0  0
    9.6103   15.4671   23.9824 C    0  0  0  0  0  0  0  0  0  0  0  0
    8.7460   15.3724   21.6772 C    0  0  0  0  0  0  0  0  0  0  0  0
    8.6314   14.7988   23.0598 N    0  0  0  0  0  0  0  0  0  0  0  0
    7.8356   13.7092   23.3332 C    0  0  0  0  0  0  0  0  0  0  0  0
    7.2536   13.1146   22.4545 O    0  0  0  0  0  0  0  0  0  0  0  0
    7.7520   13.2667   24.6208 N    0  0  0  0  0  0  0  0  0  0  0  0
    7.1942   12.0116   25.0622 C    0  0  0  0  0  0  0  0  0  0  0  0
    7.7784   10.7768   24.7054 C    0  0  0  0  0  0  0  0  0  0  0  0
    9.2903   10.7209   23.7502 S    0  0  0  0  0  0  0  0  0  0  0  0
    9.5675    8.9857   23.2778 C    0  0  0  0  0  0  0  0  0  0  0  0
    6.0355   12.0349   25.8624 C    0  0  0  0  0  0  0  0  0  0  0  0
    5.3890   10.8391   26.2680 C    0  0  0  0  0  0  0  0  0  0  0  0
    5.9843    9.6222   25.8785 C    0  0  0  0  0  0  0  0  0  0  0  0
    7.1587    9.5922   25.1329 C    0  0  0  0  0  0  0  0  0  0  0  0
    4.1656   10.8190   27.0726 N    0  0  0  0  0  0  0  0  0  0  0  0
    3.2363   11.8024   27.2352 C    0  0  0  0  0  0  0  0  0  0  0  0
    3.1950   12.8643   26.6482 O    0  0  0  0  0  0  0  0  0  0  0  0
    2.1102   11.3461   28.1341 C    0  0  0  0  0  0  0  0  0  0  0  0
    2.5357    9.9694   28.6587 C    0  0  0  0  0  0  0  0  0  0  0  0
    3.7884    9.6267   27.8550 C    0  0  0  0  0  0  0  0  0  0  0  0
   11.1176   13.9757   19.0151 H    0  0  0  0  0  0  0  0  0  0  0  0
   10.8863   15.2062   17.7822 H    0  0  0  0  0  0  0  0  0  0  0  0
   10.3849   14.1236   21.0874 H    0  0  0  0  0  0  0  0  0  0  0  0
   12.2422   15.6345   21.6528 H    0  0  0  0  0  0  0  0  0  0  0  0
   11.1368   16.9633   21.9665 H    0  0  0  0  0  0  0  0  0  0  0  0
   11.4533   14.3681   23.5684 H    0  0  0  0  0  0  0  0  0  0  0  0
   11.7140   16.0124   24.1261 H    0  0  0  0  0  0  0  0  0  0  0  0
    9.5869   15.0566   24.9937 H    0  0  0  0  0  0  0  0  0  0  0  0
    9.3246   16.5185   24.1000 H    0  0  0  0  0  0  0  0  0  0  0  0
    8.0397   14.9323   20.9678 H    0  0  0  0  0  0  0  0  0  0  0  0
    8.4720   16.4330   21.7117 H    0  0  0  0  0  0  0  0  0  0  0  0
    8.0491   13.8721   25.3812 H    0  0  0  0  0  0  0  0  0  0  0  0
    8.6690    8.6088   22.7768 H    0  0  0  0  0  0  0  0  0  0  0  0
    9.8082    8.3921   24.1613 H    0  0  0  0  0  0  0  0  0  0  0  0
   10.4104    8.9176   22.5859 H    0  0  0  0  0  0  0  0  0  0  0  0
    5.6472   13.0043   26.1602 H    0  0  0  0  0  0  0  0  0  0  0  0
    5.5684    8.6554   26.1424 H    0  0  0  0  0  0  0  0  0  0  0  0
    7.5689    8.6143   24.9154 H    0  0  0  0  0  0  0  0  0  0  0  0
    1.9529   12.0492   28.9529 H    0  0  0  0  0  0  0  0  0  0  0  0
    1.1858   11.2672   27.5537 H    0  0  0  0  0  0  0  0  0  0  0  0
    2.7691   10.0123   29.7291 H    0  0  0  0  0  0  0  0  0  0  0  0
    1.7501    9.2234   28.5020 H    0  0  0  0  0  0  0  0  0  0  0  0
    4.6075    9.3566   28.5270 H    0  0  0  0  0  0  0  0  0  0  0  0
    3.5729    8.7768   27.2025 H    0  0  0  0  0  0  0  0  0  0  0  0
 10 12  1  0  0  0  0
  9 10  1  0  0  0  0
  7  9  1  0  0  0  0
  6  7  1  0  0  0  0
  5  6  1  0  0  0  0
  4  5  1  0  0  0  0
  2  4  1  0  0  0  0
  1  2  2  0  0  0  0
  3  2  1  0  0  0  0
 27  3  1  0  0  0  0
 28  3  1  0  0  0  0
 29  4  1  0  0  0  0
 30  5  1  0  0  0  0
 31  5  1  0  0  0  0
 32  6  1  0  0  0  0
 33  6  1  0  0  0  0
 34  7  1  0  0  0  0
 35  7  1  0  0  0  0
  8  4  1  0  0  0  0
 36  8  1  0  0  0  0
 37  8  1  0  0  0  0
 11 10  2  0  0  0  0
 38 12  1  0  0  0  0
 13 12  1  0  0  0  0
 14 13  1  0  0  0  0
 20 14  2  0  0  0  0
 15 14  1  0  0  0  0
 16 15  1  0  0  0  0
 39 16  1  0  0  0  0
 40 16  1  0  0  0  0
 41 16  1  0  0  0  0
 17 13  2  0  0  0  0
 42 17  1  0  0  0  0
 18 17  1  0  0  0  0
 19 18  2  0  0  0  0
 43 19  1  0  0  0  0
 44 20  1  0  0  0  0
 21 18  1  0  0  0  0
 26 21  1  0  0  0  0
 22 21  1  0  0  0  0
 23 22  2  0  0  0  0
 24 22  1  0  0  0  0
 45 24  1  0  0  0  0
 46 24  1  0  0  0  0
 25 24  1  0  0  0  0
 47 25  1  0  0  0  0
 48 25  1  0  0  0  0
 49 26  1  0  0  0  0
 50 26  1  0  0  0  0
  9  8  1  0  0  0  0
 20 19  1  0  0  0  0
 26 25  1  0  0  0  0
M  END
>  <FittedScore>
-42.14

$$$$
