A71EV2A-x5221a_lowest-energy
  FITTED

 38 40     0  0  0  0  0  0  0999 V2000
    7.2756   13.0793   22.8192 O    0  0  0  0  0  0  0  0  0  0  0  0
    7.9212   13.7881   23.5799 C    0  0  0  0  0  0  0  0  0  0  0  0
    8.6266   14.8777   23.0996 N    0  0  0  0  0  0  0  0  0  0  0  0
    9.3899   15.8873   23.9115 C    0  0  0  0  0  0  0  0  0  0  0  0
   10.8843   15.9915   23.4955 C    0  0  0  0  0  0  0  0  0  0  0  0
   11.0363   16.2989   21.9790 C    0  0  0  0  0  0  0  0  0  0  0  0
    8.7025   15.2441   21.6441 C    0  0  0  0  0  0  0  0  0  0  0  0
   10.1673   15.3411   21.1027 C    0  0  0  0  0  0  0  0  0  0  0  0
   10.1939   15.7610   19.6297 C    0  0  0  0  0  0  0  0  0  0  0  0
    9.6445   16.7608   19.2096 O    0  0  0  0  0  0  0  0  0  0  0  0
   10.6738   14.8594   18.7538 N    0  0  0  0  0  0  0  0  0  0  0  0
    8.0039   13.4168   25.0785 C    0  0  0  0  0  0  0  0  0  0  0  0
    7.5854   11.9788   25.4012 C    0  0  0  0  0  0  0  0  0  0  0  0
    8.2557   10.8813   24.8253 C    0  0  0  0  0  0  0  0  0  0  0  0
    9.6323   10.9138   23.7097 S    0  0  0  0  0  0  0  0  0  0  0  0
    9.5080    9.1886   23.6385 C    0  0  0  0  0  0  0  0  0  0  0  0
    8.6191    8.5817   24.3395 N    0  0  0  0  0  0  0  0  0  0  0  0
    7.8314    9.5788   25.0700 C    0  0  0  0  0  0  0  0  0  0  0  0
    6.7516    9.3161   25.9200 C    0  0  0  0  0  0  0  0  0  0  0  0
    6.0918   10.3932   26.5319 C    0  0  0  0  0  0  0  0  0  0  0  0
    6.5004   11.7156   26.2683 C    0  0  0  0  0  0  0  0  0  0  0  0
    8.9174   16.8686   23.7895 H    0  0  0  0  0  0  0  0  0  0  0  0
    9.3496   15.7112   24.9845 H    0  0  0  0  0  0  0  0  0  0  0  0
   11.3729   16.7762   24.0779 H    0  0  0  0  0  0  0  0  0  0  0  0
   11.3996   15.0565   23.7338 H    0  0  0  0  0  0  0  0  0  0  0  0
   10.7558   17.3411   21.7964 H    0  0  0  0  0  0  0  0  0  0  0  0
   12.0879   16.2006   21.6939 H    0  0  0  0  0  0  0  0  0  0  0  0
    8.1900   16.2014   21.5040 H    0  0  0  0  0  0  0  0  0  0  0  0
    8.1583   14.5447   21.0050 H    0  0  0  0  0  0  0  0  0  0  0  0
   10.6038   14.3400   21.2000 H    0  0  0  0  0  0  0  0  0  0  0  0
   10.6054   15.0533   17.7597 H    0  0  0  0  0  0  0  0  0  0  0  0
   10.8986   13.9139   19.0628 H    0  0  0  0  0  0  0  0  0  0  0  0
    7.3984   14.1293   25.6467 H    0  0  0  0  0  0  0  0  0  0  0  0
    9.0267   13.5141   25.4527 H    0  0  0  0  0  0  0  0  0  0  0  0
   10.2101    8.6520   23.0054 H    0  0  0  0  0  0  0  0  0  0  0  0
    6.4303    8.2937   26.1065 H    0  0  0  0  0  0  0  0  0  0  0  0
    5.2583   10.2042   27.2054 H    0  0  0  0  0  0  0  0  0  0  0  0
    5.9611   12.5371   26.7369 H    0  0  0  0  0  0  0  0  0  0  0  0
  2  1  2  0  0  0  0
  3  2  1  0  0  0  0
  4  3  1  0  0  0  0
 22  4  1  0  0  0  0
 23  4  1  0  0  0  0
  5  4  1  0  0  0  0
 24  5  1  0  0  0  0
 25  5  1  0  0  0  0
  6  5  1  0  0  0  0
 26  6  1  0  0  0  0
 27  6  1  0  0  0  0
  7  3  1  0  0  0  0
 28  7  1  0  0  0  0
 29  7  1  0  0  0  0
  8  6  1  0  0  0  0
  9  8  1  0  0  0  0
 30  8  1  0  0  0  0
 10  9  2  0  0  0  0
 11  9  1  0  0  0  0
 31 11  1  0  0  0  0
 32 11  1  0  0  0  0
 12  2  1  0  0  0  0
 33 12  1  0  0  0  0
 34 12  1  0  0  0  0
 13 12  1  0  0  0  0
 21 13  1  0  0  0  0
 14 13  2  0  0  0  0
 15 14  1  0  0  0  0
 16 15  1  0  0  0  0
 35 16  1  0  0  0  0
 17 16  2  0  0  0  0
 18 17  1  0  0  0  0
 19 18  2  0  0  0  0
 36 19  1  0  0  0  0
 20 19  1  0  0  0  0
 37 20  1  0  0  0  0
 38 21  1  0  0  0  0
  8  7  1  0  0  0  0
 18 14  1  0  0  0  0
 21 20  2  0  0  0  0
M  END
>  <FittedScore>
-36.59

$$$$
