A71EV2A-x4035a_lowest-energy
  FITTED

 39 40     0  0  0  0  0  0  0999 V2000
    9.6881   16.8047   19.3717 O    0  0  0  0  0  0  0  0  0  0  0  0
   10.1747   15.7546   19.7511 C    0  0  0  0  0  0  0  0  0  0  0  0
   10.6571   14.8787   18.8483 N    0  0  0  0  0  0  0  0  0  0  0  0
   10.1650   15.2752   21.2070 C    0  0  0  0  0  0  0  0  0  0  0  0
   11.0800   16.1478   22.1176 C    0  0  0  0  0  0  0  0  0  0  0  0
   11.0078   15.6707   23.5964 C    0  0  0  0  0  0  0  0  0  0  0  0
    9.5463   15.4898   24.1068 C    0  0  0  0  0  0  0  0  0  0  0  0
    8.7205   15.2133   21.7974 C    0  0  0  0  0  0  0  0  0  0  0  0
    8.6759   14.6680   23.2007 N    0  0  0  0  0  0  0  0  0  0  0  0
    7.8946   13.5850   23.5531 C    0  0  0  0  0  0  0  0  0  0  0  0
    7.2413   12.9701   22.7255 O    0  0  0  0  0  0  0  0  0  0  0  0
    7.8151   13.2244   24.8694 N    0  0  0  0  0  0  0  0  0  0  0  0
    7.1786   12.0299   25.3801 C    0  0  0  0  0  0  0  0  0  0  0  0
    7.6121   10.7412   24.9537 C    0  0  0  0  0  0  0  0  0  0  0  0
    8.7385   10.6379   24.1304 O    0  0  0  0  0  0  0  0  0  0  0  0
    9.3034    9.4075   23.6029 C    0  0  0  0  0  0  0  0  0  0  0  0
    6.0828   12.1322   26.2717 C    0  0  0  0  0  0  0  0  0  0  0  0
    5.4533   13.6431   26.8534 CL   0  0  0  0  0  0  0  0  0  0  0  0
    5.4141   10.9780   26.7089 C    0  0  0  0  0  0  0  0  0  0  0  0
    5.8144    9.7210   26.2574 C    0  0  0  0  0  0  0  0  0  0  0  0
    6.8966    9.6016   25.3829 C    0  0  0  0  0  0  0  0  0  0  0  0
   10.9074   13.9339   19.1283 H    0  0  0  0  0  0  0  0  0  0  0  0
   10.6305   15.1165   17.8634 H    0  0  0  0  0  0  0  0  0  0  0  0
   10.5627   14.2532   21.2380 H    0  0  0  0  0  0  0  0  0  0  0  0
   12.1136   16.0841   21.7685 H    0  0  0  0  0  0  0  0  0  0  0  0
   10.7873   17.2023   22.0533 H    0  0  0  0  0  0  0  0  0  0  0  0
   11.5428   14.7217   23.6998 H    0  0  0  0  0  0  0  0  0  0  0  0
   11.5304   16.3918   24.2307 H    0  0  0  0  0  0  0  0  0  0  0  0
    9.6150   15.0726   25.1134 H    0  0  0  0  0  0  0  0  0  0  0  0
    9.0831   16.4736   24.2355 H    0  0  0  0  0  0  0  0  0  0  0  0
    8.0991   14.6418   21.1029 H    0  0  0  0  0  0  0  0  0  0  0  0
    8.2799   16.2153   21.8042 H    0  0  0  0  0  0  0  0  0  0  0  0
    8.1135   13.8753   25.5945 H    0  0  0  0  0  0  0  0  0  0  0  0
    9.6351    8.7605   24.4235 H    0  0  0  0  0  0  0  0  0  0  0  0
   10.1722    9.6578   22.9900 H    0  0  0  0  0  0  0  0  0  0  0  0
    8.5789    8.8782   22.9818 H    0  0  0  0  0  0  0  0  0  0  0  0
    4.5692   11.0592   27.3882 H    0  0  0  0  0  0  0  0  0  0  0  0
    5.2808    8.8316   26.5878 H    0  0  0  0  0  0  0  0  0  0  0  0
    7.1729    8.6020   25.0565 H    0  0  0  0  0  0  0  0  0  0  0  0
  9 10  1  0  0  0  0
  7  9  1  0  0  0  0
  6  7  1  0  0  0  0
  5  6  1  0  0  0  0
  4  5  1  0  0  0  0
  2  4  1  0  0  0  0
  1  2  2  0  0  0  0
  3  2  1  0  0  0  0
 22  3  1  0  0  0  0
 23  3  1  0  0  0  0
 24  4  1  0  0  0  0
 25  5  1  0  0  0  0
 26  5  1  0  0  0  0
 27  6  1  0  0  0  0
 28  6  1  0  0  0  0
 29  7  1  0  0  0  0
 30  7  1  0  0  0  0
  8  4  1  0  0  0  0
 31  8  1  0  0  0  0
 32  8  1  0  0  0  0
 11 10  2  0  0  0  0
 12 10  1  0  0  0  0
 33 12  1  0  0  0  0
 13 12  1  0  0  0  0
 14 13  1  0  0  0  0
 21 14  2  0  0  0  0
 15 14  1  0  0  0  0
 16 15  1  0  0  0  0
 34 16  1  0  0  0  0
 35 16  1  0  0  0  0
 36 16  1  0  0  0  0
 17 13  2  0  0  0  0
 18 17  1  0  0  0  0
 19 17  1  0  0  0  0
 37 19  1  0  0  0  0
 20 19  2  0  0  0  0
 38 20  1  0  0  0  0
 39 21  1  0  0  0  0
  9  8  1  0  0  0  0
 21 20  1  0  0  0  0
M  END
>  <FittedScore>
-37.04

$$$$
