A71EV2A-x4035a_best-RMSD
  FITTED

 39 40     0  0  0  0  0  0  0999 V2000
    9.8787   16.8306   19.5091 O    0  0  0  0  0  0  0  0  0  0  0  0
   10.2856   15.7268   19.8159 C    0  0  0  0  0  0  0  0  0  0  0  0
   10.6462   14.8571   18.8523 N    0  0  0  0  0  0  0  0  0  0  0  0
   10.3018   15.1793   21.2460 C    0  0  0  0  0  0  0  0  0  0  0  0
   11.3150   15.9367   22.1499 C    0  0  0  0  0  0  0  0  0  0  0  0
   11.2990   15.3580   23.5916 C    0  0  0  0  0  0  0  0  0  0  0  0
    9.8585   15.2432   24.1799 C    0  0  0  0  0  0  0  0  0  0  0  0
    8.8874   15.1841   21.8968 C    0  0  0  0  0  0  0  0  0  0  0  0
    8.8595   14.5709   23.2694 N    0  0  0  0  0  0  0  0  0  0  0  0
    7.9896   13.5476   23.5986 C    0  0  0  0  0  0  0  0  0  0  0  0
    7.2752   13.0105   22.7655 O    0  0  0  0  0  0  0  0  0  0  0  0
    7.9070   13.1606   24.9053 N    0  0  0  0  0  0  0  0  0  0  0  0
    7.2366   11.9721   25.3811 C    0  0  0  0  0  0  0  0  0  0  0  0
    7.6639   10.6893   24.9413 C    0  0  0  0  0  0  0  0  0  0  0  0
    8.8140   10.5793   24.1489 O    0  0  0  0  0  0  0  0  0  0  0  0
    9.2262    9.3752   23.4545 C    0  0  0  0  0  0  0  0  0  0  0  0
    6.1190   12.0733   26.2481 C    0  0  0  0  0  0  0  0  0  0  0  0
    5.4889   13.5701   26.8527 CL   0  0  0  0  0  0  0  0  0  0  0  0
    5.4146   10.9256   26.6307 C    0  0  0  0  0  0  0  0  0  0  0  0
    5.8167    9.6680   26.1810 C    0  0  0  0  0  0  0  0  0  0  0  0
    6.9264    9.5514   25.3381 C    0  0  0  0  0  0  0  0  0  0  0  0
   10.5967   15.1332   17.8799 H    0  0  0  0  0  0  0  0  0  0  0  0
   10.8207   13.8797   19.0818 H    0  0  0  0  0  0  0  0  0  0  0  0
   10.6254   14.1308   21.2201 H    0  0  0  0  0  0  0  0  0  0  0  0
   12.3234   15.8402   21.7336 H    0  0  0  0  0  0  0  0  0  0  0  0
   11.0780   17.0075   22.1802 H    0  0  0  0  0  0  0  0  0  0  0  0
   11.7854   14.3792   23.5882 H    0  0  0  0  0  0  0  0  0  0  0  0
   11.9047   15.9978   24.2381 H    0  0  0  0  0  0  0  0  0  0  0  0
    9.9590   14.7344   25.1428 H    0  0  0  0  0  0  0  0  0  0  0  0
    9.4876   16.2475   24.4154 H    0  0  0  0  0  0  0  0  0  0  0  0
    8.2082   14.6868   21.2023 H    0  0  0  0  0  0  0  0  0  0  0  0
    8.5051   16.2063   21.9618 H    0  0  0  0  0  0  0  0  0  0  0  0
    8.2800   13.7516   25.6491 H    0  0  0  0  0  0  0  0  0  0  0  0
    8.4371    9.0448   22.7747 H    0  0  0  0  0  0  0  0  0  0  0  0
    9.4622    8.5747   24.1647 H    0  0  0  0  0  0  0  0  0  0  0  0
   10.1242    9.5826   22.8664 H    0  0  0  0  0  0  0  0  0  0  0  0
    4.5432   11.0040   27.2779 H    0  0  0  0  0  0  0  0  0  0  0  0
    5.2666    8.7777   26.4803 H    0  0  0  0  0  0  0  0  0  0  0  0
    7.2077    8.5549   25.0105 H    0  0  0  0  0  0  0  0  0  0  0  0
  9 10  1  0  0  0  0
  7  9  1  0  0  0  0
  6  7  1  0  0  0  0
  5  6  1  0  0  0  0
  4  5  1  0  0  0  0
  2  4  1  0  0  0  0
  1  2  2  0  0  0  0
  3  2  1  0  0  0  0
 22  3  1  0  0  0  0
 23  3  1  0  0  0  0
 24  4  1  0  0  0  0
 25  5  1  0  0  0  0
 26  5  1  0  0  0  0
 27  6  1  0  0  0  0
 28  6  1  0  0  0  0
 29  7  1  0  0  0  0
 30  7  1  0  0  0  0
  8  4  1  0  0  0  0
 31  8  1  0  0  0  0
 32  8  1  0  0  0  0
 11 10  2  0  0  0  0
 12 10  1  0  0  0  0
 33 12  1  0  0  0  0
 13 12  1  0  0  0  0
 14 13  1  0  0  0  0
 21 14  2  0  0  0  0
 15 14  1  0  0  0  0
 16 15  1  0  0  0  0
 34 16  1  0  0  0  0
 35 16  1  0  0  0  0
 36 16  1  0  0  0  0
 17 13  2  0  0  0  0
 18 17  1  0  0  0  0
 19 17  1  0  0  0  0
 37 19  1  0  0  0  0
 20 19  2  0  0  0  0
 38 20  1  0  0  0  0
 39 21  1  0  0  0  0
  9  8  1  0  0  0  0
 21 20  1  0  0  0  0
M  END
>  <FittedScore>
-36.55

$$$$
