A71EV2A-x5073a_best-RMSD
  FITTED

 40 42     0  0  0  0  0  0  0999 V2000
   10.4471   14.1072   25.1721 O    0  0  0  0  0  0  0  0  0  0  0  0
   10.2764   14.7060   24.1259 C    0  0  0  0  0  0  0  0  0  0  0  0
   11.4684   15.4649   23.5192 C    0  0  0  0  0  0  0  0  0  0  0  0
   11.2491   16.0834   22.1110 C    0  0  0  0  0  0  0  0  0  0  0  0
    9.1058   14.5718   23.4052 N    0  0  0  0  0  0  0  0  0  0  0  0
    8.9810   14.9960   21.9787 C    0  0  0  0  0  0  0  0  0  0  0  0
   10.3530   15.1416   21.2754 C    0  0  0  0  0  0  0  0  0  0  0  0
   10.2049   15.5925   19.8314 C    0  0  0  0  0  0  0  0  0  0  0  0
    9.6536   16.6290   19.5105 O    0  0  0  0  0  0  0  0  0  0  0  0
   10.5310   14.6584   18.9187 N    0  0  0  0  0  0  0  0  0  0  0  0
    7.8791   13.8617   23.9101 C    0  0  0  0  0  0  0  0  0  0  0  0
    8.0939   12.3445   24.1345 C    0  0  0  0  0  0  0  0  0  0  0  0
    9.0434   11.6096   23.3836 C    0  0  0  0  0  0  0  0  0  0  0  0
    9.1803   10.2306   23.5530 C    0  0  0  0  0  0  0  0  0  0  0  0
    8.3418    9.5554   24.4425 C    0  0  0  0  0  0  0  0  0  0  0  0
    7.4025   10.2583   25.2034 C    0  0  0  0  0  0  0  0  0  0  0  0
    7.2768   11.6524   25.0675 C    0  0  0  0  0  0  0  0  0  0  0  0
    6.2769   12.3885   25.9697 C    0  0  0  0  0  0  0  0  0  0  0  0
    5.9738   13.8683   25.6119 C    0  0  0  0  0  0  0  0  0  0  0  0
    7.2417   14.6089   25.1195 C    0  0  0  0  0  0  0  0  0  0  0  0
   11.7573   16.2615   24.2098 H    0  0  0  0  0  0  0  0  0  0  0  0
   12.3149   14.7745   23.4651 H    0  0  0  0  0  0  0  0  0  0  0  0
   10.7883   17.0723   22.2054 H    0  0  0  0  0  0  0  0  0  0  0  0
   12.2130   16.2270   21.6170 H    0  0  0  0  0  0  0  0  0  0  0  0
    8.4262   15.9392   21.9468 H    0  0  0  0  0  0  0  0  0  0  0  0
    8.4078   14.2684   21.3930 H    0  0  0  0  0  0  0  0  0  0  0  0
   10.8244   14.1493   21.2943 H    0  0  0  0  0  0  0  0  0  0  0  0
   10.7566   13.7091   19.2124 H    0  0  0  0  0  0  0  0  0  0  0  0
   10.5280   14.8857   17.9344 H    0  0  0  0  0  0  0  0  0  0  0  0
    7.0916   13.9015   23.1485 H    0  0  0  0  0  0  0  0  0  0  0  0
    9.6808   12.0896   22.6462 H    0  0  0  0  0  0  0  0  0  0  0  0
    9.9171    9.6824   22.9707 H    0  0  0  0  0  0  0  0  0  0  0  0
    8.4305    8.4779   24.5538 H    0  0  0  0  0  0  0  0  0  0  0  0
    6.7734    9.7135   25.9039 H    0  0  0  0  0  0  0  0  0  0  0  0
    5.3290   11.8428   25.9815 H    0  0  0  0  0  0  0  0  0  0  0  0
    6.6636   12.3551   26.9918 H    0  0  0  0  0  0  0  0  0  0  0  0
    5.2018   13.9081   24.8379 H    0  0  0  0  0  0  0  0  0  0  0  0
    5.5679   14.3814   26.4871 H    0  0  0  0  0  0  0  0  0  0  0  0
    6.9842   15.6303   24.8274 H    0  0  0  0  0  0  0  0  0  0  0  0
    7.9468   14.6854   25.9523 H    0  0  0  0  0  0  0  0  0  0  0  0
  2  5  1  0  0  0  0
  3  2  1  0  0  0  0
 21  3  1  0  0  0  0
  1  2  2  0  0  0  0
 22  3  1  0  0  0  0
  4  3  1  0  0  0  0
 23  4  1  0  0  0  0
 24  4  1  0  0  0  0
  6  5  1  0  0  0  0
 25  6  1  0  0  0  0
 26  6  1  0  0  0  0
  7  4  1  0  0  0  0
  8  7  1  0  0  0  0
 27  7  1  0  0  0  0
  9  8  2  0  0  0  0
 10  8  1  0  0  0  0
 28 10  1  0  0  0  0
 29 10  1  0  0  0  0
 11  5  1  0  0  0  0
 20 11  1  0  0  0  0
 30 11  1  0  0  0  0
 12 11  1  0  0  0  0
 13 12  1  0  0  0  0
 31 13  1  0  0  0  0
 14 13  2  0  0  0  0
 32 14  1  0  0  0  0
 15 14  1  0  0  0  0
 33 15  1  0  0  0  0
 16 15  2  0  0  0  0
 34 16  1  0  0  0  0
 17 16  1  0  0  0  0
 18 17  1  0  0  0  0
 35 18  1  0  0  0  0
 36 18  1  0  0  0  0
 19 18  1  0  0  0  0
 37 19  1  0  0  0  0
 38 19  1  0  0  0  0
 39 20  1  0  0  0  0
 40 20  1  0  0  0  0
  7  6  1  0  0  0  0
 17 12  2  0  0  0  0
 20 19  1  0  0  0  0
M  END
>  <FittedScore>
-34.08

$$$$
