A71EV2A-x5073a_lowest-energy
  FITTED

 40 42     0  0  0  0  0  0  0999 V2000
   10.4363   14.1373   25.1712 O    0  0  0  0  0  0  0  0  0  0  0  0
   10.2745   14.7378   24.1264 C    0  0  0  0  0  0  0  0  0  0  0  0
   11.4723   15.5119   23.5462 C    0  0  0  0  0  0  0  0  0  0  0  0
   11.2815   16.1226   22.1320 C    0  0  0  0  0  0  0  0  0  0  0  0
    9.1200   14.5840   23.3858 N    0  0  0  0  0  0  0  0  0  0  0  0
    9.0143   15.0211   21.9637 C    0  0  0  0  0  0  0  0  0  0  0  0
   10.4018   15.1723   21.2866 C    0  0  0  0  0  0  0  0  0  0  0  0
   10.2732   15.6296   19.8428 C    0  0  0  0  0  0  0  0  0  0  0  0
    9.6784   16.6417   19.5190 O    0  0  0  0  0  0  0  0  0  0  0  0
   10.6076   14.7003   18.9309 N    0  0  0  0  0  0  0  0  0  0  0  0
    7.9092   13.8236   23.8574 C    0  0  0  0  0  0  0  0  0  0  0  0
    8.1816   12.3147   24.0719 C    0  0  0  0  0  0  0  0  0  0  0  0
    9.1629   11.6259   23.3197 C    0  0  0  0  0  0  0  0  0  0  0  0
    9.3448   10.2508   23.4677 C    0  0  0  0  0  0  0  0  0  0  0  0
    8.5265    9.5345   24.3410 C    0  0  0  0  0  0  0  0  0  0  0  0
    7.5623   10.1927   25.1103 C    0  0  0  0  0  0  0  0  0  0  0  0
    7.3926   11.5837   24.9976 C    0  0  0  0  0  0  0  0  0  0  0  0
    6.3862   12.2777   25.9228 C    0  0  0  0  0  0  0  0  0  0  0  0
    5.9895   13.7280   25.5444 C    0  0  0  0  0  0  0  0  0  0  0  0
    7.2091   14.5444   25.0491 C    0  0  0  0  0  0  0  0  0  0  0  0
   11.7305   16.3187   24.2382 H    0  0  0  0  0  0  0  0  0  0  0  0
   12.3334   14.8365   23.5108 H    0  0  0  0  0  0  0  0  0  0  0  0
   10.8181   17.1133   22.2098 H    0  0  0  0  0  0  0  0  0  0  0  0
   12.2559   16.2668   21.6547 H    0  0  0  0  0  0  0  0  0  0  0  0
    8.4568   15.9619   21.9351 H    0  0  0  0  0  0  0  0  0  0  0  0
    8.4459   14.3077   21.3597 H    0  0  0  0  0  0  0  0  0  0  0  0
   10.8827   14.1830   21.3112 H    0  0  0  0  0  0  0  0  0  0  0  0
   10.6253   14.9387   17.9466 H    0  0  0  0  0  0  0  0  0  0  0  0
   10.8245   13.7488   19.2205 H    0  0  0  0  0  0  0  0  0  0  0  0
    7.1408   13.8314   23.0778 H    0  0  0  0  0  0  0  0  0  0  0  0
    9.7967   12.1405   22.6012 H    0  0  0  0  0  0  0  0  0  0  0  0
   10.1134    9.7406   22.8929 H    0  0  0  0  0  0  0  0  0  0  0  0
    8.6634    8.4612   24.4457 H    0  0  0  0  0  0  0  0  0  0  0  0
    6.9627    9.6184   25.8110 H    0  0  0  0  0  0  0  0  0  0  0  0
    5.4735   11.6792   25.9782 H    0  0  0  0  0  0  0  0  0  0  0  0
    6.8092   12.2883   26.9312 H    0  0  0  0  0  0  0  0  0  0  0  0
    5.2230   13.7051   24.7646 H    0  0  0  0  0  0  0  0  0  0  0  0
    5.5456   14.2247   26.4108 H    0  0  0  0  0  0  0  0  0  0  0  0
    6.8829   15.5393   24.7334 H    0  0  0  0  0  0  0  0  0  0  0  0
    7.8984   14.6885   25.8864 H    0  0  0  0  0  0  0  0  0  0  0  0
  2  5  1  0  0  0  0
  3  2  1  0  0  0  0
 21  3  1  0  0  0  0
  1  2  2  0  0  0  0
 22  3  1  0  0  0  0
  4  3  1  0  0  0  0
 23  4  1  0  0  0  0
 24  4  1  0  0  0  0
  6  5  1  0  0  0  0
 25  6  1  0  0  0  0
 26  6  1  0  0  0  0
  7  4  1  0  0  0  0
  8  7  1  0  0  0  0
 27  7  1  0  0  0  0
  9  8  2  0  0  0  0
 10  8  1  0  0  0  0
 28 10  1  0  0  0  0
 29 10  1  0  0  0  0
 11  5  1  0  0  0  0
 20 11  1  0  0  0  0
 30 11  1  0  0  0  0
 12 11  1  0  0  0  0
 13 12  1  0  0  0  0
 31 13  1  0  0  0  0
 14 13  2  0  0  0  0
 32 14  1  0  0  0  0
 15 14  1  0  0  0  0
 33 15  1  0  0  0  0
 16 15  2  0  0  0  0
 34 16  1  0  0  0  0
 17 16  1  0  0  0  0
 18 17  1  0  0  0  0
 35 18  1  0  0  0  0
 36 18  1  0  0  0  0
 19 18  1  0  0  0  0
 37 19  1  0  0  0  0
 38 19  1  0  0  0  0
 39 20  1  0  0  0  0
 40 20  1  0  0  0  0
  7  6  1  0  0  0  0
 17 12  2  0  0  0  0
 20 19  1  0  0  0  0
M  END
>  <FittedScore>
-33.99

$$$$
