A71EV2A-x3665a_best-RMSD
  FITTED

 40 41     0  0  0  0  0  0  0999 V2000
   11.7906   14.6174   23.7209 F    0  0  0  0  0  0  0  0  0  0  0  0
   11.1477   15.7866   23.4976 C    0  0  0  0  0  0  0  0  0  0  0  0
   11.7835   16.7259   24.2333 F    0  0  0  0  0  0  0  0  0  0  0  0
   11.2252   16.1724   21.9845 C    0  0  0  0  0  0  0  0  0  0  0  0
   10.2799   15.2931   21.1101 C    0  0  0  0  0  0  0  0  0  0  0  0
   10.2733   15.7527   19.6519 C    0  0  0  0  0  0  0  0  0  0  0  0
    9.6186   16.6835   19.2241 O    0  0  0  0  0  0  0  0  0  0  0  0
   10.9047   14.9350   18.7947 N    0  0  0  0  0  0  0  0  0  0  0  0
    8.8388   15.2105   21.6979 C    0  0  0  0  0  0  0  0  0  0  0  0
    9.6704   15.6334   23.9746 C    0  0  0  0  0  0  0  0  0  0  0  0
    8.8158   14.7295   23.1194 N    0  0  0  0  0  0  0  0  0  0  0  0
    8.0376   13.6704   23.5595 C    0  0  0  0  0  0  0  0  0  0  0  0
    7.2394   13.1129   22.8208 O    0  0  0  0  0  0  0  0  0  0  0  0
    8.1882   13.2028   25.0148 C    0  0  0  0  0  0  0  0  0  0  0  0
    7.4371   11.9088   25.3651 C    0  0  0  0  0  0  0  0  0  0  0  0
    7.8511   10.6488   24.8657 C    0  0  0  0  0  0  0  0  0  0  0  0
    8.9584   10.5949   24.0247 O    0  0  0  0  0  0  0  0  0  0  0  0
    9.4738    9.4071   23.3846 C    0  0  0  0  0  0  0  0  0  0  0  0
    6.3188   11.9793   26.2196 C    0  0  0  0  0  0  0  0  0  0  0  0
    5.6065   10.8241   26.5590 C    0  0  0  0  0  0  0  0  0  0  0  0
    5.9970    9.5916   26.0386 C    0  0  0  0  0  0  0  0  0  0  0  0
    7.1127    9.4985   25.2017 C    0  0  0  0  0  0  0  0  0  0  0  0
   10.9770   17.2307   21.8564 H    0  0  0  0  0  0  0  0  0  0  0  0
   12.2509   16.0510   21.6300 H    0  0  0  0  0  0  0  0  0  0  0  0
   10.6765   14.2697   21.1580 H    0  0  0  0  0  0  0  0  0  0  0  0
   10.9241   15.1643   17.8101 H    0  0  0  0  0  0  0  0  0  0  0  0
   11.2197   14.0159   19.1125 H    0  0  0  0  0  0  0  0  0  0  0  0
    8.3473   16.1870   21.6474 H    0  0  0  0  0  0  0  0  0  0  0  0
    8.2572   14.5603   21.0367 H    0  0  0  0  0  0  0  0  0  0  0  0
    9.2047   16.6251   23.9875 H    0  0  0  0  0  0  0  0  0  0  0  0
    9.6910   15.3369   25.0225 H    0  0  0  0  0  0  0  0  0  0  0  0
    9.2486   13.0440   25.2331 H    0  0  0  0  0  0  0  0  0  0  0  0
    7.8507   14.0012   25.6804 H    0  0  0  0  0  0  0  0  0  0  0  0
    8.7154    8.9317   22.7596 H    0  0  0  0  0  0  0  0  0  0  0  0
    9.8402    8.7168   24.1466 H    0  0  0  0  0  0  0  0  0  0  0  0
   10.3064    9.6937   22.7374 H    0  0  0  0  0  0  0  0  0  0  0  0
    5.9889   12.9276   26.6367 H    0  0  0  0  0  0  0  0  0  0  0  0
    4.7556   10.8841   27.2300 H    0  0  0  0  0  0  0  0  0  0  0  0
    5.4450    8.6913   26.2979 H    0  0  0  0  0  0  0  0  0  0  0  0
    7.3841    8.5180   24.8222 H    0  0  0  0  0  0  0  0  0  0  0  0
 11 12  1  0  0  0  0
  9 11  1  0  0  0  0
  5  9  1  0  0  0  0
  6  5  1  0  0  0  0
  4  5  1  0  0  0  0
  2  4  1  0  0  0  0
  1  2  1  0  0  0  0
  3  2  1  0  0  0  0
 23  4  1  0  0  0  0
 24  4  1  0  0  0  0
 25  5  1  0  0  0  0
  7  6  2  0  0  0  0
  8  6  1  0  0  0  0
 26  8  1  0  0  0  0
 27  8  1  0  0  0  0
 28  9  1  0  0  0  0
 29  9  1  0  0  0  0
 10  2  1  0  0  0  0
 30 10  1  0  0  0  0
 31 10  1  0  0  0  0
 13 12  2  0  0  0  0
 14 12  1  0  0  0  0
 32 14  1  0  0  0  0
 33 14  1  0  0  0  0
 15 14  1  0  0  0  0
 16 15  1  0  0  0  0
 22 16  2  0  0  0  0
 17 16  1  0  0  0  0
 18 17  1  0  0  0  0
 34 18  1  0  0  0  0
 35 18  1  0  0  0  0
 36 18  1  0  0  0  0
 19 15  2  0  0  0  0
 37 19  1  0  0  0  0
 20 19  1  0  0  0  0
 38 20  1  0  0  0  0
 21 20  2  0  0  0  0
 39 21  1  0  0  0  0
 40 22  1  0  0  0  0
 11 10  1  0  0  0  0
 22 21  1  0  0  0  0
M  END
>  <FittedScore>
-32.83

$$$$
