A71EV2A-x3665a_lowest-energy
  FITTED

 40 41     0  0  0  0  0  0  0999 V2000
   11.8702   14.7773   23.7386 F    0  0  0  0  0  0  0  0  0  0  0  0
   11.1502   15.8936   23.5037 C    0  0  0  0  0  0  0  0  0  0  0  0
   11.6885   16.8397   24.2870 F    0  0  0  0  0  0  0  0  0  0  0  0
   11.2479   16.3323   22.0112 C    0  0  0  0  0  0  0  0  0  0  0  0
   10.4510   15.3556   21.0963 C    0  0  0  0  0  0  0  0  0  0  0  0
   10.5054   15.8077   19.6331 C    0  0  0  0  0  0  0  0  0  0  0  0
    9.9842   16.8132   19.1892 O    0  0  0  0  0  0  0  0  0  0  0  0
   11.0187   14.9067   18.7796 N    0  0  0  0  0  0  0  0  0  0  0  0
    8.9886   15.1298   21.6096 C    0  0  0  0  0  0  0  0  0  0  0  0
    9.6722   15.6575   23.9238 C    0  0  0  0  0  0  0  0  0  0  0  0
    8.9262   14.6854   23.0438 N    0  0  0  0  0  0  0  0  0  0  0  0
    8.1619   13.6191   23.4863 C    0  0  0  0  0  0  0  0  0  0  0  0
    7.3416   13.0803   22.7579 O    0  0  0  0  0  0  0  0  0  0  0  0
    8.3698   13.1044   24.9234 C    0  0  0  0  0  0  0  0  0  0  0  0
    7.5655   11.8536   25.2877 C    0  0  0  0  0  0  0  0  0  0  0  0
    7.9206   10.5659   24.8310 C    0  0  0  0  0  0  0  0  0  0  0  0
    9.0639   10.4313   24.0549 O    0  0  0  0  0  0  0  0  0  0  0  0
    9.5382    9.1797   23.4956 C    0  0  0  0  0  0  0  0  0  0  0  0
    6.4481   12.0023   26.1343 C    0  0  0  0  0  0  0  0  0  0  0  0
    5.6884   10.8895   26.5190 C    0  0  0  0  0  0  0  0  0  0  0  0
    6.0278    9.6196   26.0431 C    0  0  0  0  0  0  0  0  0  0  0  0
    7.1296    9.4583   25.2031 C    0  0  0  0  0  0  0  0  0  0  0  0
   10.8553   17.3517   21.9039 H    0  0  0  0  0  0  0  0  0  0  0  0
   12.2980   16.3699   21.7006 H    0  0  0  0  0  0  0  0  0  0  0  0
   10.9516   14.3812   21.1857 H    0  0  0  0  0  0  0  0  0  0  0  0
   11.0149   15.0994   17.7876 H    0  0  0  0  0  0  0  0  0  0  0  0
   11.2342   13.9647   19.0918 H    0  0  0  0  0  0  0  0  0  0  0  0
    8.4017   16.0477   21.4933 H    0  0  0  0  0  0  0  0  0  0  0  0
    8.5273   14.3971   20.9419 H    0  0  0  0  0  0  0  0  0  0  0  0
    9.1371   16.6124   23.9005 H    0  0  0  0  0  0  0  0  0  0  0  0
    9.6802   15.3836   24.9769 H    0  0  0  0  0  0  0  0  0  0  0  0
    9.4291   12.8692   25.0763 H    0  0  0  0  0  0  0  0  0  0  0  0
    8.1344   13.8892   25.6435 H    0  0  0  0  0  0  0  0  0  0  0  0
    8.7908    8.7286   22.8421 H    0  0  0  0  0  0  0  0  0  0  0  0
    9.7994    8.4978   24.3060 H    0  0  0  0  0  0  0  0  0  0  0  0
   10.4334    9.3609   22.9003 H    0  0  0  0  0  0  0  0  0  0  0  0
    6.1571   12.9852   26.4959 H    0  0  0  0  0  0  0  0  0  0  0  0
    4.8375   11.0167   27.1829 H    0  0  0  0  0  0  0  0  0  0  0  0
    5.4434    8.7543   26.3437 H    0  0  0  0  0  0  0  0  0  0  0  0
    7.3713    8.4529   24.8698 H    0  0  0  0  0  0  0  0  0  0  0  0
 11 12  1  0  0  0  0
  9 11  1  0  0  0  0
  5  9  1  0  0  0  0
  6  5  1  0  0  0  0
  4  5  1  0  0  0  0
  2  4  1  0  0  0  0
  1  2  1  0  0  0  0
  3  2  1  0  0  0  0
 23  4  1  0  0  0  0
 24  4  1  0  0  0  0
 25  5  1  0  0  0  0
  7  6  2  0  0  0  0
  8  6  1  0  0  0  0
 26  8  1  0  0  0  0
 27  8  1  0  0  0  0
 28  9  1  0  0  0  0
 29  9  1  0  0  0  0
 10  2  1  0  0  0  0
 30 10  1  0  0  0  0
 31 10  1  0  0  0  0
 13 12  2  0  0  0  0
 14 12  1  0  0  0  0
 32 14  1  0  0  0  0
 33 14  1  0  0  0  0
 15 14  1  0  0  0  0
 16 15  1  0  0  0  0
 22 16  2  0  0  0  0
 17 16  1  0  0  0  0
 18 17  1  0  0  0  0
 34 18  1  0  0  0  0
 35 18  1  0  0  0  0
 36 18  1  0  0  0  0
 19 15  2  0  0  0  0
 37 19  1  0  0  0  0
 20 19  1  0  0  0  0
 38 20  1  0  0  0  0
 21 20  2  0  0  0  0
 39 21  1  0  0  0  0
 40 22  1  0  0  0  0
 11 10  1  0  0  0  0
 22 21  1  0  0  0  0
M  END
>  <FittedScore>
-32.95

$$$$
