A71EV2A-x3194a_best-RMSD
  FITTED

 38 39     0  0  0  0  0  0  0999 V2000
    9.8915   16.7136   19.3857 O    0  0  0  0  0  0  0  0  0  0  0  0
   10.3663   15.6579   19.7466 C    0  0  0  0  0  0  0  0  0  0  0  0
   10.8235   14.7738   18.8387 N    0  0  0  0  0  0  0  0  0  0  0  0
   10.3584   15.2121   21.2091 C    0  0  0  0  0  0  0  0  0  0  0  0
   11.3958   16.0133   22.0595 C    0  0  0  0  0  0  0  0  0  0  0  0
   11.2942   15.6420   23.5674 C    0  0  0  0  0  0  0  0  0  0  0  0
    9.8211   15.7098   24.0694 C    0  0  0  0  0  0  0  0  0  0  0  0
    8.9253   15.3333   21.8235 C    0  0  0  0  0  0  0  0  0  0  0  0
    8.8905   14.8646   23.2421 N    0  0  0  0  0  0  0  0  0  0  0  0
    8.1461   13.7788   23.6489 C    0  0  0  0  0  0  0  0  0  0  0  0
    7.3565   13.2265   22.8916 O    0  0  0  0  0  0  0  0  0  0  0  0
    8.3776   13.1790   25.0451 C    0  0  0  0  0  0  0  0  0  0  0  0
    8.2125   11.6693   25.0491 C    0  0  0  0  0  0  0  0  0  0  0  0
    9.0688   10.8801   24.2617 C    0  0  0  0  0  0  0  0  0  0  0  0
    7.1858   11.0426   25.7800 C    0  0  0  0  0  0  0  0  0  0  0  0
    7.0417    9.6514   25.6875 C    0  0  0  0  0  0  0  0  0  0  0  0
    7.8666    8.8944   24.9166 N    0  0  0  0  0  0  0  0  0  0  0  0
    8.8728    9.4914   24.2211 C    0  0  0  0  0  0  0  0  0  0  0  0
    9.8052    8.6229   23.4006 C    0  0  0  0  0  0  0  0  0  0  0  0
   11.0574   13.8224   19.1254 H    0  0  0  0  0  0  0  0  0  0  0  0
   10.7614   14.9939   17.8494 H    0  0  0  0  0  0  0  0  0  0  0  0
   10.6403   14.1515   21.2712 H    0  0  0  0  0  0  0  0  0  0  0  0
   12.4061   15.8036   21.7005 H    0  0  0  0  0  0  0  0  0  0  0  0
   11.2350   17.0900   21.9379 H    0  0  0  0  0  0  0  0  0  0  0  0
   11.6933   14.6362   23.7273 H    0  0  0  0  0  0  0  0  0  0  0  0
   11.9139   16.3257   24.1529 H    0  0  0  0  0  0  0  0  0  0  0  0
    9.7905   15.4922   25.1348 H    0  0  0  0  0  0  0  0  0  0  0  0
    9.4864   16.7517   24.0177 H    0  0  0  0  0  0  0  0  0  0  0  0
    8.2306   14.7922   21.1759 H    0  0  0  0  0  0  0  0  0  0  0  0
    8.5768   16.3721   21.7871 H    0  0  0  0  0  0  0  0  0  0  0  0
    9.3907   13.3514   25.4134 H    0  0  0  0  0  0  0  0  0  0  0  0
    7.6917   13.6558   25.7528 H    0  0  0  0  0  0  0  0  0  0  0  0
    9.8668   11.3423   23.6833 H    0  0  0  0  0  0  0  0  0  0  0  0
    6.4996   11.6182   26.3963 H    0  0  0  0  0  0  0  0  0  0  0  0
    6.2381    9.1646   26.2330 H    0  0  0  0  0  0  0  0  0  0  0  0
    9.4327    8.5068   22.3825 H    0  0  0  0  0  0  0  0  0  0  0  0
    9.9021    7.6239   23.8358 H    0  0  0  0  0  0  0  0  0  0  0  0
   10.8072    9.0552   23.3559 H    0  0  0  0  0  0  0  0  0  0  0  0
  9 10  1  0  0  0  0
  7  9  1  0  0  0  0
  6  7  1  0  0  0  0
  5  6  1  0  0  0  0
  4  5  1  0  0  0  0
  2  4  1  0  0  0  0
  1  2  2  0  0  0  0
  3  2  1  0  0  0  0
 20  3  1  0  0  0  0
 21  3  1  0  0  0  0
 22  4  1  0  0  0  0
 23  5  1  0  0  0  0
 24  5  1  0  0  0  0
 25  6  1  0  0  0  0
 26  6  1  0  0  0  0
 27  7  1  0  0  0  0
 28  7  1  0  0  0  0
  8  4  1  0  0  0  0
 29  8  1  0  0  0  0
 30  8  1  0  0  0  0
 11 10  2  0  0  0  0
 12 10  1  0  0  0  0
 31 12  1  0  0  0  0
 32 12  1  0  0  0  0
 13 12  1  0  0  0  0
 14 13  1  0  0  0  0
 33 14  1  0  0  0  0
 15 13  2  0  0  0  0
 34 15  1  0  0  0  0
 16 15  1  0  0  0  0
 35 16  1  0  0  0  0
 17 16  2  0  0  0  0
 18 14  2  0  0  0  0
 19 18  1  0  0  0  0
 36 19  1  0  0  0  0
 37 19  1  0  0  0  0
 38 19  1  0  0  0  0
  9  8  1  0  0  0  0
 18 17  1  0  0  0  0
M  END
>  <FittedScore>
-36.72

$$$$
