A71EV2A-x5283a_lowest-energy
  FITTED

 41 43     0  0  0  0  0  0  0999 V2000
   10.0272   16.8558   19.2781 O    0  0  0  0  0  0  0  0  0  0  0  0
   10.3669   15.7490   19.6510 C    0  0  0  0  0  0  0  0  0  0  0  0
   10.7971   14.8502   18.7457 N    0  0  0  0  0  0  0  0  0  0  0  0
   10.2900   15.2521   21.0989 C    0  0  0  0  0  0  0  0  0  0  0  0
   11.2611   16.0376   22.0265 C    0  0  0  0  0  0  0  0  0  0  0  0
   11.1623   15.5101   23.4828 C    0  0  0  0  0  0  0  0  0  0  0  0
    9.6943   15.4502   23.9888 C    0  0  0  0  0  0  0  0  0  0  0  0
    8.8391   15.2446   21.6769 C    0  0  0  0  0  0  0  0  0  0  0  0
    8.7662   14.6969   23.0769 N    0  0  0  0  0  0  0  0  0  0  0  0
    7.9262   13.6577   23.4155 C    0  0  0  0  0  0  0  0  0  0  0  0
    7.2461   13.0825   22.5868 O    0  0  0  0  0  0  0  0  0  0  0  0
    7.8636   13.2731   24.7205 N    0  0  0  0  0  0  0  0  0  0  0  0
    7.2227   12.0934   25.2334 C    0  0  0  0  0  0  0  0  0  0  0  0
    7.6836   10.7831   24.9185 C    0  0  0  0  0  0  0  0  0  0  0  0
    9.1445   10.5416   23.8965 S    0  0  0  0  0  0  0  0  0  0  0  0
    9.2919    8.7736   23.4722 C    0  0  0  0  0  0  0  0  0  0  0  0
    6.0986   12.2373   26.0701 C    0  0  0  0  0  0  0  0  0  0  0  0
    5.4363   13.4922   26.4640 N    0  0  0  0  0  0  0  0  0  0  0  0
    4.4280   13.2110   27.2126 C    0  0  0  0  0  0  0  0  0  0  0  0
    4.0716   11.5594   27.6098 S    0  0  0  0  0  0  0  0  0  0  0  0
    5.4497   11.1266   26.5958 C    0  0  0  0  0  0  0  0  0  0  0  0
    5.8860    9.8356   26.2969 C    0  0  0  0  0  0  0  0  0  0  0  0
    6.9911    9.6713   25.4529 C    0  0  0  0  0  0  0  0  0  0  0  0
   10.8101   15.0879   17.7593 H    0  0  0  0  0  0  0  0  0  0  0  0
   10.9542   13.8865   19.0293 H    0  0  0  0  0  0  0  0  0  0  0  0
   10.6244   14.2068   21.1168 H    0  0  0  0  0  0  0  0  0  0  0  0
   12.2875   15.9156   21.6694 H    0  0  0  0  0  0  0  0  0  0  0  0
   11.0388   17.1089   22.0004 H    0  0  0  0  0  0  0  0  0  0  0  0
   11.6021   14.5094   23.5424 H    0  0  0  0  0  0  0  0  0  0  0  0
   11.7497   16.1553   24.1413 H    0  0  0  0  0  0  0  0  0  0  0  0
    9.7367   15.0343   24.9984 H    0  0  0  0  0  0  0  0  0  0  0  0
    9.3052   16.4668   24.1172 H    0  0  0  0  0  0  0  0  0  0  0  0
    8.2144   14.6830   20.9798 H    0  0  0  0  0  0  0  0  0  0  0  0
    8.4224   16.2541   21.6731 H    0  0  0  0  0  0  0  0  0  0  0  0
    8.2376   13.8756   25.4504 H    0  0  0  0  0  0  0  0  0  0  0  0
    9.4370    8.1833   24.3802 H    0  0  0  0  0  0  0  0  0  0  0  0
   10.1542    8.5965   22.8288 H    0  0  0  0  0  0  0  0  0  0  0  0
    8.3835    8.4681   22.9428 H    0  0  0  0  0  0  0  0  0  0  0  0
    3.7724   13.9791   27.6163 H    0  0  0  0  0  0  0  0  0  0  0  0
    5.3743    8.9687   26.7106 H    0  0  0  0  0  0  0  0  0  0  0  0
    7.3144    8.6569   25.2520 H    0  0  0  0  0  0  0  0  0  0  0  0
  9 10  1  0  0  0  0
  7  9  1  0  0  0  0
  6  7  1  0  0  0  0
  5  6  1  0  0  0  0
  4  5  1  0  0  0  0
  2  4  1  0  0  0  0
  1  2  2  0  0  0  0
  3  2  1  0  0  0  0
 24  3  1  0  0  0  0
 25  3  1  0  0  0  0
 26  4  1  0  0  0  0
 27  5  1  0  0  0  0
 28  5  1  0  0  0  0
 29  6  1  0  0  0  0
 30  6  1  0  0  0  0
 31  7  1  0  0  0  0
 32  7  1  0  0  0  0
  8  4  1  0  0  0  0
 33  8  1  0  0  0  0
 34  8  1  0  0  0  0
 11 10  2  0  0  0  0
 12 10  1  0  0  0  0
 35 12  1  0  0  0  0
 13 12  1  0  0  0  0
 14 13  1  0  0  0  0
 23 14  2  0  0  0  0
 15 14  1  0  0  0  0
 16 15  1  0  0  0  0
 36 16  1  0  0  0  0
 37 16  1  0  0  0  0
 38 16  1  0  0  0  0
 17 13  2  0  0  0  0
 18 17  1  0  0  0  0
 19 18  2  0  0  0  0
 39 19  1  0  0  0  0
 20 19  1  0  0  0  0
 21 20  1  0  0  0  0
 22 21  2  0  0  0  0
 40 22  1  0  0  0  0
 41 23  1  0  0  0  0
  9  8  1  0  0  0  0
 21 17  1  0  0  0  0
 23 22  1  0  0  0  0
M  END
>  <FittedScore>
-34.94

$$$$
