A71EV2A-x5995b_best-RMSD
  FITTED

 47 49     0  0  0  0  0  0  0999 V2000
    9.5083    9.0448   23.3871 C    0  0  0  0  0  0  0  0  0  0  0  0
    9.2026   10.8138   23.6957 S    0  0  0  0  0  0  0  0  0  0  0  0
    7.6907   10.9590   24.6575 C    0  0  0  0  0  0  0  0  0  0  0  0
    7.2325    9.8656   25.4182 C    0  0  0  0  0  0  0  0  0  0  0  0
    6.1161    9.9821   26.2511 C    0  0  0  0  0  0  0  0  0  0  0  0
    5.4561   11.2024   26.3575 C    0  0  0  0  0  0  0  0  0  0  0  0
    5.8784   12.3116   25.6062 C    0  0  0  0  0  0  0  0  0  0  0  0
    6.9759   12.1885   24.7026 C    0  0  0  0  0  0  0  0  0  0  0  0
    7.3777   13.4041   23.8121 C    0  0  0  0  0  0  0  0  0  0  0  0
    8.6698   14.0949   24.3249 C    0  0  0  0  0  0  0  0  0  0  0  0
    9.0267   13.8598   25.4680 O    0  0  0  0  0  0  0  0  0  0  0  0
    9.3670   15.0079   23.5543 N    0  0  0  0  0  0  0  0  0  0  0  0
   10.3652   15.9678   24.1439 C    0  0  0  0  0  0  0  0  0  0  0  0
   11.7243   15.9727   23.4032 C    0  0  0  0  0  0  0  0  0  0  0  0
   11.5456   16.2934   21.9029 C    0  0  0  0  0  0  0  0  0  0  0  0
   10.4805   15.3508   21.2688 C    0  0  0  0  0  0  0  0  0  0  0  0
   10.2425   15.7499   19.8166 C    0  0  0  0  0  0  0  0  0  0  0  0
   10.5827   14.8354   18.8893 N    0  0  0  0  0  0  0  0  0  0  0  0
    9.7390   16.8070   19.4887 O    0  0  0  0  0  0  0  0  0  0  0  0
    9.1529   15.3163   22.0955 C    0  0  0  0  0  0  0  0  0  0  0  0
    6.2087   14.4272   23.6269 C    0  0  0  0  0  0  0  0  0  0  0  0
    5.5999   14.8440   24.9862 C    0  0  0  0  0  0  0  0  0  0  0  0
    5.0751   13.6100   25.7546 C    0  0  0  0  0  0  0  0  0  0  0  0
   10.3457    8.9419   22.6969 H    0  0  0  0  0  0  0  0  0  0  0  0
    8.6238    8.5833   22.9427 H    0  0  0  0  0  0  0  0  0  0  0  0
    9.7714    8.5354   24.3151 H    0  0  0  0  0  0  0  0  0  0  0  0
    7.7452    8.9116   25.4153 H    0  0  0  0  0  0  0  0  0  0  0  0
    5.7768    9.1246   26.8283 H    0  0  0  0  0  0  0  0  0  0  0  0
    4.5992   11.2828   27.0249 H    0  0  0  0  0  0  0  0  0  0  0  0
    7.5588   12.9927   22.8173 H    0  0  0  0  0  0  0  0  0  0  0  0
   10.5765   15.7595   25.1927 H    0  0  0  0  0  0  0  0  0  0  0  0
    9.9343   16.9739   24.1356 H    0  0  0  0  0  0  0  0  0  0  0  0
   12.2118   14.9992   23.5181 H    0  0  0  0  0  0  0  0  0  0  0  0
   12.3836   16.7166   23.8551 H    0  0  0  0  0  0  0  0  0  0  0  0
   12.5022   16.1667   21.3870 H    0  0  0  0  0  0  0  0  0  0  0  0
   11.2590   17.3444   21.7834 H    0  0  0  0  0  0  0  0  0  0  0  0
   10.8941   14.3349   21.3000 H    0  0  0  0  0  0  0  0  0  0  0  0
   10.8506   13.8913   19.1641 H    0  0  0  0  0  0  0  0  0  0  0  0
   10.5685   15.0807   17.9099 H    0  0  0  0  0  0  0  0  0  0  0  0
    8.5007   14.5968   21.6024 H    0  0  0  0  0  0  0  0  0  0  0  0
    8.6405   16.2810   22.0098 H    0  0  0  0  0  0  0  0  0  0  0  0
    5.4319   13.9700   23.0061 H    0  0  0  0  0  0  0  0  0  0  0  0
    6.5217   15.3183   23.0855 H    0  0  0  0  0  0  0  0  0  0  0  0
    4.7848   15.5536   24.8267 H    0  0  0  0  0  0  0  0  0  0  0  0
    6.3493   15.3576   25.5956 H    0  0  0  0  0  0  0  0  0  0  0  0
    4.0488   13.4160   25.4309 H    0  0  0  0  0  0  0  0  0  0  0  0
    5.0184   13.8705   26.8150 H    0  0  0  0  0  0  0  0  0  0  0  0
  9 10  1  0  0  0  0
  8  9  1  0  0  0  0
  7  8  2  0  0  0  0
  6  7  1  0  0  0  0
  5  6  2  0  0  0  0
  4  5  1  0  0  0  0
  3  4  2  0  0  0  0
  2  3  1  0  0  0  0
  1  2  1  0  0  0  0
 24  1  1  0  0  0  0
 25  1  1  0  0  0  0
 26  1  1  0  0  0  0
 27  4  1  0  0  0  0
 28  5  1  0  0  0  0
 29  6  1  0  0  0  0
 21  9  1  0  0  0  0
 30  9  1  0  0  0  0
 11 10  2  0  0  0  0
 12 10  1  0  0  0  0
 13 12  1  0  0  0  0
 14 13  1  0  0  0  0
 31 13  1  0  0  0  0
 32 13  1  0  0  0  0
 15 14  1  0  0  0  0
 33 14  1  0  0  0  0
 34 14  1  0  0  0  0
 16 15  1  0  0  0  0
 35 15  1  0  0  0  0
 36 15  1  0  0  0  0
 17 16  1  0  0  0  0
 20 16  1  0  0  0  0
 37 16  1  0  0  0  0
 18 17  1  0  0  0  0
 19 17  2  0  0  0  0
 38 18  1  0  0  0  0
 39 18  1  0  0  0  0
 40 20  1  0  0  0  0
 41 20  1  0  0  0  0
 22 21  1  0  0  0  0
 42 21  1  0  0  0  0
 43 21  1  0  0  0  0
 23 22  1  0  0  0  0
 44 22  1  0  0  0  0
 45 22  1  0  0  0  0
 46 23  1  0  0  0  0
 47 23  1  0  0  0  0
  8  3  1  0  0  0  0
 20 12  1  0  0  0  0
 23  7  1  0  0  0  0
M  END
>  <FittedScore>
-31.83

$$$$
