A71EV2A-x4032a_best-RMSD
  FITTED

 40 41     0  0  0  0  0  0  0999 V2000
    9.9621   16.8706   19.1515 O    0  0  0  0  0  0  0  0  0  0  0  0
   10.6832   15.9315   19.4159 C    0  0  0  0  0  0  0  0  0  0  0  0
   10.6502   14.8204   18.6613 N    0  0  0  0  0  0  0  0  0  0  0  0
   11.4397   15.7976   20.7272 C    0  0  0  0  0  0  0  0  0  0  0  0
   10.5056   15.8237   21.9689 C    0  0  0  0  0  0  0  0  0  0  0  0
   11.2781   15.5565   23.2711 C    0  0  0  0  0  0  0  0  0  0  0  0
   10.3399   14.7091   24.1370 C    0  0  0  0  0  0  0  0  0  0  0  0
    9.3759   14.7621   21.9484 C    0  0  0  0  0  0  0  0  0  0  0  0
    9.2284   14.1988   23.2997 N    0  0  0  0  0  0  0  0  0  0  0  0
    8.2148   13.3519   23.6847 C    0  0  0  0  0  0  0  0  0  0  0  0
    7.3411   13.0086   22.9012 O    0  0  0  0  0  0  0  0  0  0  0  0
    8.1477   12.9470   25.1637 C    0  0  0  0  0  0  0  0  0  0  0  0
    7.2539   11.7417   25.4642 C    0  0  0  0  0  0  0  0  0  0  0  0
    7.6075   10.4398   25.0312 C    0  0  0  0  0  0  0  0  0  0  0  0
    8.7906   10.2670   24.3083 O    0  0  0  0  0  0  0  0  0  0  0  0
    9.1060    9.1107   23.4955 C    0  0  0  0  0  0  0  0  0  0  0  0
    6.0802   11.9324   26.2220 C    0  0  0  0  0  0  0  0  0  0  0  0
    5.2673   10.8474   26.5635 C    0  0  0  0  0  0  0  0  0  0  0  0
    5.6112    9.5606   26.1378 C    0  0  0  0  0  0  0  0  0  0  0  0
    6.7616    9.3599   25.3655 C    0  0  0  0  0  0  0  0  0  0  0  0
   10.1967   14.8494   17.7628 H    0  0  0  0  0  0  0  0  0  0  0  0
   11.0183   13.9372   19.0120 H    0  0  0  0  0  0  0  0  0  0  0  0
   12.0362   14.8777   20.7280 H    0  0  0  0  0  0  0  0  0  0  0  0
   12.1521   16.6262   20.7988 H    0  0  0  0  0  0  0  0  0  0  0  0
   10.0455   16.8162   22.0377 H    0  0  0  0  0  0  0  0  0  0  0  0
   12.2058   15.0028   23.0940 H    0  0  0  0  0  0  0  0  0  0  0  0
   11.5392   16.4915   23.7713 H    0  0  0  0  0  0  0  0  0  0  0  0
   10.9063   13.8752   24.5621 H    0  0  0  0  0  0  0  0  0  0  0  0
    9.9432   15.3107   24.9595 H    0  0  0  0  0  0  0  0  0  0  0  0
    9.5917   13.9410   21.2580 H    0  0  0  0  0  0  0  0  0  0  0  0
    8.4395   15.2238   21.6212 H    0  0  0  0  0  0  0  0  0  0  0  0
    9.1371   12.6873   25.5462 H    0  0  0  0  0  0  0  0  0  0  0  0
    7.8273   13.8187   25.7417 H    0  0  0  0  0  0  0  0  0  0  0  0
   10.0352    9.2998   22.9584 H    0  0  0  0  0  0  0  0  0  0  0  0
    8.3165    8.9194   22.7638 H    0  0  0  0  0  0  0  0  0  0  0  0
    9.2460    8.2318   24.1277 H    0  0  0  0  0  0  0  0  0  0  0  0
    5.7961   12.9265   26.5600 H    0  0  0  0  0  0  0  0  0  0  0  0
    4.3670   11.0035   27.1524 H    0  0  0  0  0  0  0  0  0  0  0  0
    4.9777    8.7164   26.3968 H    0  0  0  0  0  0  0  0  0  0  0  0
    6.9882    8.3466   25.0478 H    0  0  0  0  0  0  0  0  0  0  0  0
  9 10  1  0  0  0  0
  7  9  1  0  0  0  0
  6  7  1  0  0  0  0
  5  6  1  0  0  0  0
  4  5  1  0  0  0  0
  2  4  1  0  0  0  0
  1  2  2  0  0  0  0
  3  2  1  0  0  0  0
 21  3  1  0  0  0  0
 22  3  1  0  0  0  0
 23  4  1  0  0  0  0
 24  4  1  0  0  0  0
 25  5  1  0  0  0  0
 26  6  1  0  0  0  0
 27  6  1  0  0  0  0
 28  7  1  0  0  0  0
 29  7  1  0  0  0  0
  8  5  1  0  0  0  0
 30  8  1  0  0  0  0
 31  8  1  0  0  0  0
 11 10  2  0  0  0  0
 12 10  1  0  0  0  0
 32 12  1  0  0  0  0
 33 12  1  0  0  0  0
 13 12  1  0  0  0  0
 14 13  1  0  0  0  0
 20 14  2  0  0  0  0
 15 14  1  0  0  0  0
 16 15  1  0  0  0  0
 34 16  1  0  0  0  0
 35 16  1  0  0  0  0
 36 16  1  0  0  0  0
 17 13  2  0  0  0  0
 37 17  1  0  0  0  0
 18 17  1  0  0  0  0
 38 18  1  0  0  0  0
 19 18  2  0  0  0  0
 39 19  1  0  0  0  0
 40 20  1  0  0  0  0
  9  8  1  0  0  0  0
 20 19  1  0  0  0  0
M  END
>  <FittedScore>
-31.06

$$$$
