A71EV2A-x5594a_best-RMSD
  FITTED

 34 35     0  0  0  0  0  0  0999 V2000
    9.9040   16.7735   19.3585 O    0  0  0  0  0  0  0  0  0  0  0  0
   10.3959   15.7170   19.7000 C    0  0  0  0  0  0  0  0  0  0  0  0
   10.8631   14.8455   18.7851 N    0  0  0  0  0  0  0  0  0  0  0  0
   10.3319   15.1894   21.1247 C    0  0  0  0  0  0  0  0  0  0  0  0
   11.2517   16.0015   22.0766 C    0  0  0  0  0  0  0  0  0  0  0  0
   11.1357   15.4640   23.5294 C    0  0  0  0  0  0  0  0  0  0  0  0
    9.6620   15.3171   24.0002 C    0  0  0  0  0  0  0  0  0  0  0  0
    8.8703   15.1524   21.6500 C    0  0  0  0  0  0  0  0  0  0  0  0
    8.7740   14.5884   23.0363 N    0  0  0  0  0  0  0  0  0  0  0  0
    7.8763   13.6051   23.3720 C    0  0  0  0  0  0  0  0  0  0  0  0
    7.1130   13.1176   22.5553 O    0  0  0  0  0  0  0  0  0  0  0  0
    7.9007   13.1729   24.6650 O    0  0  0  0  0  0  0  0  0  0  0  0
    7.1435   12.1113   25.1452 C    0  0  0  0  0  0  0  0  0  0  0  0
    7.4464   10.7615   24.8485 C    0  0  0  0  0  0  0  0  0  0  0  0
    8.5904   10.3792   24.0531 C    0  0  0  0  0  0  0  0  0  0  0  0
    9.4986   10.0722   23.4367 N    0  0  0  0  0  0  0  0  0  0  0  0
    6.0243   12.3983   25.9478 C    0  0  0  0  0  0  0  0  0  0  0  0
    5.2009   11.4252   26.4294 N    0  0  0  0  0  0  0  0  0  0  0  0
    5.4801   10.1257   26.1256 C    0  0  0  0  0  0  0  0  0  0  0  0
    6.5904    9.7628   25.3417 C    0  0  0  0  0  0  0  0  0  0  0  0
   10.8826   15.1054   17.8120 H    0  0  0  0  0  0  0  0  0  0  0  0
   11.0278   13.8769   19.0411 H    0  0  0  0  0  0  0  0  0  0  0  0
   10.6930   14.1563   21.1409 H    0  0  0  0  0  0  0  0  0  0  0  0
   12.2878   15.9251   21.7423 H    0  0  0  0  0  0  0  0  0  0  0  0
   10.9875   17.0633   22.0555 H    0  0  0  0  0  0  0  0  0  0  0  0
   11.6486   14.5026   23.5982 H    0  0  0  0  0  0  0  0  0  0  0  0
   11.6643   16.1432   24.2005 H    0  0  0  0  0  0  0  0  0  0  0  0
    9.6977   14.8309   24.9779 H    0  0  0  0  0  0  0  0  0  0  0  0
    9.2438   16.3129   24.1869 H    0  0  0  0  0  0  0  0  0  0  0  0
    8.2753   14.5835   20.9277 H    0  0  0  0  0  0  0  0  0  0  0  0
    8.4394   16.1608   21.6497 H    0  0  0  0  0  0  0  0  0  0  0  0
    5.8016   13.4393   26.1761 H    0  0  0  0  0  0  0  0  0  0  0  0
    4.8194    9.3455   26.4954 H    0  0  0  0  0  0  0  0  0  0  0  0
    6.7709    8.7127   25.1096 H    0  0  0  0  0  0  0  0  0  0  0  0
  7  9  1  0  0  0  0
  6  7  1  0  0  0  0
  5  6  1  0  0  0  0
  4  5  1  0  0  0  0
  2  4  1  0  0  0  0
  1  2  2  0  0  0  0
  3  2  1  0  0  0  0
 21  3  1  0  0  0  0
 22  3  1  0  0  0  0
 23  4  1  0  0  0  0
 24  5  1  0  0  0  0
 25  5  1  0  0  0  0
 26  6  1  0  0  0  0
 27  6  1  0  0  0  0
 28  7  1  0  0  0  0
 29  7  1  0  0  0  0
  8  4  1  0  0  0  0
 30  8  1  0  0  0  0
 31  8  1  0  0  0  0
 10  9  1  0  0  0  0
 11 10  2  0  0  0  0
 12 10  1  0  0  0  0
 13 12  1  0  0  0  0
 14 13  1  0  0  0  0
 20 14  2  0  0  0  0
 15 14  1  0  0  0  0
 16 15  3  0  0  0  0
 17 13  2  0  0  0  0
 32 17  1  0  0  0  0
 18 17  1  0  0  0  0
 19 18  2  0  0  0  0
 33 19  1  0  0  0  0
 34 20  1  0  0  0  0
  9  8  1  0  0  0  0
 20 19  1  0  0  0  0
M  END
>  <FittedScore>
-32.79

$$$$
