A71EV2A-x5594a_lowest-energy
  FITTED

 34 35     0  0  0  0  0  0  0999 V2000
    9.8476   16.7593   19.3847 O    0  0  0  0  0  0  0  0  0  0  0  0
   10.4084   15.7289   19.7143 C    0  0  0  0  0  0  0  0  0  0  0  0
   10.9493   14.9015   18.7988 N    0  0  0  0  0  0  0  0  0  0  0  0
   10.3983   15.1794   21.1406 C    0  0  0  0  0  0  0  0  0  0  0  0
   11.3109   15.9964   22.0972 C    0  0  0  0  0  0  0  0  0  0  0  0
   11.2992   15.3482   23.5084 C    0  0  0  0  0  0  0  0  0  0  0  0
    9.8527   15.1403   24.0393 C    0  0  0  0  0  0  0  0  0  0  0  0
    8.9561   15.0862   21.7134 C    0  0  0  0  0  0  0  0  0  0  0  0
    8.9287   14.4519   23.0654 N    0  0  0  0  0  0  0  0  0  0  0  0
    8.0613   13.4374   23.3804 C    0  0  0  0  0  0  0  0  0  0  0  0
    7.1468   13.0924   22.6429 O    0  0  0  0  0  0  0  0  0  0  0  0
    8.2880   12.8227   24.5727 O    0  0  0  0  0  0  0  0  0  0  0  0
    7.4600   11.8361   25.0698 C    0  0  0  0  0  0  0  0  0  0  0  0
    7.6375   10.4735   24.7406 C    0  0  0  0  0  0  0  0  0  0  0  0
    8.7144   10.0030   23.8958 C    0  0  0  0  0  0  0  0  0  0  0  0
    9.5658    9.6243   23.2371 N    0  0  0  0  0  0  0  0  0  0  0  0
    6.3889   12.2170   25.8981 C    0  0  0  0  0  0  0  0  0  0  0  0
    5.5151   11.3120   26.4166 N    0  0  0  0  0  0  0  0  0  0  0  0
    5.6822    9.9970   26.0984 C    0  0  0  0  0  0  0  0  0  0  0  0
    6.7187    9.5498   25.2603 C    0  0  0  0  0  0  0  0  0  0  0  0
   10.9513   15.1670   17.8212 H    0  0  0  0  0  0  0  0  0  0  0  0
   11.2521   13.9673   19.0671 H    0  0  0  0  0  0  0  0  0  0  0  0
   10.7853   14.1505   21.1258 H    0  0  0  0  0  0  0  0  0  0  0  0
   12.3316   16.0221   21.7099 H    0  0  0  0  0  0  0  0  0  0  0  0
   10.9627   17.0300   22.1638 H    0  0  0  0  0  0  0  0  0  0  0  0
   11.8199   14.3836   23.4745 H    0  0  0  0  0  0  0  0  0  0  0  0
   11.8599   15.9792   24.2011 H    0  0  0  0  0  0  0  0  0  0  0  0
    9.9385   14.6081   24.9890 H    0  0  0  0  0  0  0  0  0  0  0  0
    9.4254   16.1140   24.2939 H    0  0  0  0  0  0  0  0  0  0  0  0
    8.3558   14.5290   20.9887 H    0  0  0  0  0  0  0  0  0  0  0  0
    8.4970   16.0771   21.7755 H    0  0  0  0  0  0  0  0  0  0  0  0
    6.2476   13.2700   26.1228 H    0  0  0  0  0  0  0  0  0  0  0  0
    4.9874    9.2642   26.5070 H    0  0  0  0  0  0  0  0  0  0  0  0
    6.8018    8.4946   25.0148 H    0  0  0  0  0  0  0  0  0  0  0  0
  7  9  1  0  0  0  0
  6  7  1  0  0  0  0
  5  6  1  0  0  0  0
  4  5  1  0  0  0  0
  2  4  1  0  0  0  0
  1  2  2  0  0  0  0
  3  2  1  0  0  0  0
 21  3  1  0  0  0  0
 22  3  1  0  0  0  0
 23  4  1  0  0  0  0
 24  5  1  0  0  0  0
 25  5  1  0  0  0  0
 26  6  1  0  0  0  0
 27  6  1  0  0  0  0
 28  7  1  0  0  0  0
 29  7  1  0  0  0  0
  8  4  1  0  0  0  0
 30  8  1  0  0  0  0
 31  8  1  0  0  0  0
 10  9  1  0  0  0  0
 11 10  2  0  0  0  0
 12 10  1  0  0  0  0
 13 12  1  0  0  0  0
 14 13  1  0  0  0  0
 20 14  2  0  0  0  0
 15 14  1  0  0  0  0
 16 15  3  0  0  0  0
 17 13  2  0  0  0  0
 32 17  1  0  0  0  0
 18 17  1  0  0  0  0
 19 18  2  0  0  0  0
 33 19  1  0  0  0  0
 34 20  1  0  0  0  0
  9  8  1  0  0  0  0
 20 19  1  0  0  0  0
M  END
>  <FittedScore>
-33.14

$$$$
