A71EV2A-x7184a_best-RMSD
  FITTED

 48 51     0  0  0  0  0  0  0999 V2000
    5.2679   10.1681   27.7287 C    0  0  0  0  0  0  0  0  0  0  0  0
    5.2898    9.8240   25.9678 S    0  0  0  0  0  0  0  0  0  0  0  0
    6.4544   10.9661   25.2473 C    0  0  0  0  0  0  0  0  0  0  0  0
    7.7388   10.5449   24.9051 C    0  0  0  0  0  0  0  0  0  0  0  0
    8.6132   11.3804   24.1912 C    0  0  0  0  0  0  0  0  0  0  0  0
    8.2441   12.6879   23.8136 C    0  0  0  0  0  0  0  0  0  0  0  0
    9.1810   13.6360   23.1286 C    0  0  0  0  0  0  0  0  0  0  0  0
    8.7280   14.5362   22.1366 C    0  0  0  0  0  0  0  0  0  0  0  0
    9.6042   15.4655   21.5585 C    0  0  0  0  0  0  0  0  0  0  0  0
   10.9138   15.5462   21.9226 N    0  0  0  0  0  0  0  0  0  0  0  0
   11.3780   14.6814   22.8626 C    0  0  0  0  0  0  0  0  0  0  0  0
   10.5625   13.7143   23.4761 C    0  0  0  0  0  0  0  0  0  0  0  0
    6.9344   13.1068   24.1580 C    0  0  0  0  0  0  0  0  0  0  0  0
    6.0775   12.2690   24.8979 C    0  0  0  0  0  0  0  0  0  0  0  0
    4.8467   12.7419   25.3443 O    0  0  0  0  0  0  0  0  0  0  0  0
    4.6903   13.7120   26.2813 C    0  0  0  0  0  0  0  0  0  0  0  0
    5.5459   14.5725   26.4049 O    0  0  0  0  0  0  0  0  0  0  0  0
    3.6140   13.6201   27.1185 N    0  0  0  0  0  0  0  0  0  0  0  0
    2.3529   12.9202   26.6966 C    0  0  0  0  0  0  0  0  0  0  0  0
    1.3639   13.9493   26.0576 C    0  0  0  0  0  0  0  0  0  0  0  0
    1.8702   14.4696   24.6886 C    0  0  0  0  0  0  0  0  0  0  0  0
    1.7534   13.6693   23.6226 N    0  0  0  0  0  0  0  0  0  0  0  0
    2.3889   15.5354   24.4920 O    0  0  0  0  0  0  0  0  0  0  0  0
    1.0164   15.0934   27.0958 C    0  0  0  0  0  0  0  0  0  0  0  0
    2.2700   15.5944   27.8368 C    0  0  0  0  0  0  0  0  0  0  0  0
    2.5130   15.0848   29.2388 C    0  0  0  0  0  0  0  0  0  0  0  0
    3.4518   14.7386   28.1499 C    0  0  0  0  0  0  0  0  0  0  0  0
    4.6320    9.4403   28.2284 H    0  0  0  0  0  0  0  0  0  0  0  0
    6.2657   10.1223   28.1523 H    0  0  0  0  0  0  0  0  0  0  0  0
    4.8561   11.1563   27.8382 H    0  0  0  0  0  0  0  0  0  0  0  0
    8.0713    9.5608   25.1881 H    0  0  0  0  0  0  0  0  0  0  0  0
    9.5978   10.9862   23.9299 H    0  0  0  0  0  0  0  0  0  0  0  0
    7.6876   14.5314   21.8132 H    0  0  0  0  0  0  0  0  0  0  0  0
    9.2185   16.1499   20.8074 H    0  0  0  0  0  0  0  0  0  0  0  0
   12.4232   14.7395   23.1584 H    0  0  0  0  0  0  0  0  0  0  0  0
   11.0011   13.0511   24.2169 H    0  0  0  0  0  0  0  0  0  0  0  0
    6.5877   14.1060   23.8902 H    0  0  0  0  0  0  0  0  0  0  0  0
    1.8938   12.4350   27.5696 H    0  0  0  0  0  0  0  0  0  0  0  0
    2.5470   12.0934   26.0020 H    0  0  0  0  0  0  0  0  0  0  0  0
    0.4332   13.4088   25.8568 H    0  0  0  0  0  0  0  0  0  0  0  0
    1.2789   12.7961   23.7199 H    0  0  0  0  0  0  0  0  0  0  0  0
    2.3869   13.8045   22.8419 H    0  0  0  0  0  0  0  0  0  0  0  0
    0.3198   14.6801   27.8253 H    0  0  0  0  0  0  0  0  0  0  0  0
    0.4864   15.9386   26.6517 H    0  0  0  0  0  0  0  0  0  0  0  0
    2.5595   16.6017   27.5424 H    0  0  0  0  0  0  0  0  0  0  0  0
    1.9576   14.2573   29.6591 H    0  0  0  0  0  0  0  0  0  0  0  0
    2.9158   15.7741   29.9763 H    0  0  0  0  0  0  0  0  0  0  0  0
    4.3863   15.2580   28.1814 H    0  0  0  0  0  0  0  0  0  0  0  0
 14 15  1  0  0  0  0
 13 14  2  0  0  0  0
  6 13  1  0  0  0  0
  5  6  2  0  0  0  0
  4  5  1  0  0  0  0
  3  4  2  0  0  0  0
  2  3  1  0  0  0  0
  1  2  1  0  0  0  0
 28  1  1  0  0  0  0
 29  1  1  0  0  0  0
 30  1  1  0  0  0  0
 31  4  1  0  0  0  0
 32  5  1  0  0  0  0
  7  6  1  0  0  0  0
  8  7  2  0  0  0  0
  9  8  1  0  0  0  0
 33  8  1  0  0  0  0
 10  9  2  0  0  0  0
 34  9  1  0  0  0  0
 11 10  1  0  0  0  0
 12 11  2  0  0  0  0
 35 11  1  0  0  0  0
 36 12  1  0  0  0  0
 37 13  1  0  0  0  0
 16 15  1  0  0  0  0
 17 16  2  0  0  0  0
 18 16  1  0  0  0  0
 19 18  1  0  0  0  0
 20 19  1  0  0  0  0
 38 19  1  0  0  0  0
 39 19  1  0  0  0  0
 21 20  1  0  0  0  0
 24 20  1  0  0  0  0
 40 20  1  0  0  0  0
 22 21  1  0  0  0  0
 23 21  2  0  0  0  0
 41 22  1  0  0  0  0
 42 22  1  0  0  0  0
 43 24  1  0  0  0  0
 44 24  1  0  0  0  0
 25 24  1  0  0  0  0
 26 25  1  0  0  0  0
 45 25  1  0  0  0  0
 46 26  1  0  0  0  0
 47 26  1  0  0  0  0
 27 26  1  0  0  0  0
 48 27  1  0  0  0  0
 12  7  1  0  0  0  0
 14  3  1  0  0  0  0
 27 18  1  0  0  0  0
 27 25  1  0  0  0  0
M  END
>  <FittedScore>
-24.16

$$$$
