A71EV2A-x5151a_best-RMSD
  FITTED

 41 43     0  0  0  0  0  0  0999 V2000
    7.3671   13.3395   22.5833 O    0  0  0  0  0  0  0  0  0  0  0  0
    8.1680   13.9268   23.2950 C    0  0  0  0  0  0  0  0  0  0  0  0
    8.9342   14.9688   22.8064 N    0  0  0  0  0  0  0  0  0  0  0  0
    9.7422   15.9469   23.6173 C    0  0  0  0  0  0  0  0  0  0  0  0
   11.2231   16.0504   23.1596 C    0  0  0  0  0  0  0  0  0  0  0  0
   11.3313   16.4039   21.6540 C    0  0  0  0  0  0  0  0  0  0  0  0
    8.9669   15.3595   21.3611 C    0  0  0  0  0  0  0  0  0  0  0  0
   10.4163   15.4825   20.7912 C    0  0  0  0  0  0  0  0  0  0  0  0
   10.4076   15.9138   19.3270 C    0  0  0  0  0  0  0  0  0  0  0  0
    9.7206   16.8118   18.8746 O    0  0  0  0  0  0  0  0  0  0  0  0
   11.1176   15.1290   18.5046 N    0  0  0  0  0  0  0  0  0  0  0  0
    8.3114   13.5331   24.7757 C    0  0  0  0  0  0  0  0  0  0  0  0
    7.7392   12.1606   25.1248 C    0  0  0  0  0  0  0  0  0  0  0  0
    8.3372   10.9737   24.6536 C    0  0  0  0  0  0  0  0  0  0  0  0
    9.8313   10.8445   23.7182 S    0  0  0  0  0  0  0  0  0  0  0  0
    9.8972    9.0349   23.8838 C    0  0  0  0  0  0  0  0  0  0  0  0
    8.4845    8.5672   24.2639 C    0  0  0  0  0  0  0  0  0  0  0  0
    7.7508    9.7340   24.8934 C    0  0  0  0  0  0  0  0  0  0  0  0
    6.5782    9.6410   25.6564 C    0  0  0  0  0  0  0  0  0  0  0  0
    5.9956   10.8060   26.1796 C    0  0  0  0  0  0  0  0  0  0  0  0
    6.5661   12.0589   25.9018 C    0  0  0  0  0  0  0  0  0  0  0  0
    9.2782   16.9367   23.5367 H    0  0  0  0  0  0  0  0  0  0  0  0
    9.7435   15.7414   24.6844 H    0  0  0  0  0  0  0  0  0  0  0  0
   11.7367   16.8109   23.7508 H    0  0  0  0  0  0  0  0  0  0  0  0
   11.7324   15.1025   23.3560 H    0  0  0  0  0  0  0  0  0  0  0  0
   11.0794   17.4587   21.4975 H    0  0  0  0  0  0  0  0  0  0  0  0
   12.3708   16.2799   21.3320 H    0  0  0  0  0  0  0  0  0  0  0  0
    8.4361   16.3103   21.2485 H    0  0  0  0  0  0  0  0  0  0  0  0
    8.4270   14.6509   20.7256 H    0  0  0  0  0  0  0  0  0  0  0  0
   10.8393   14.4721   20.8654 H    0  0  0  0  0  0  0  0  0  0  0  0
   11.0528   15.2659   17.5046 H    0  0  0  0  0  0  0  0  0  0  0  0
   11.5550   14.2772   18.8428 H    0  0  0  0  0  0  0  0  0  0  0  0
    7.8355   14.3049   25.3872 H    0  0  0  0  0  0  0  0  0  0  0  0
    9.3639   13.5131   25.0717 H    0  0  0  0  0  0  0  0  0  0  0  0
   10.6064    8.7907   24.6786 H    0  0  0  0  0  0  0  0  0  0  0  0
   10.2453    8.5851   22.9513 H    0  0  0  0  0  0  0  0  0  0  0  0
    8.5313    7.7149   24.9482 H    0  0  0  0  0  0  0  0  0  0  0  0
    7.9458    8.2494   23.3667 H    0  0  0  0  0  0  0  0  0  0  0  0
    6.1201    8.6718   25.8493 H    0  0  0  0  0  0  0  0  0  0  0  0
    5.0898   10.7402   26.7795 H    0  0  0  0  0  0  0  0  0  0  0  0
    6.0793   12.9534   26.2823 H    0  0  0  0  0  0  0  0  0  0  0  0
  2  1  2  0  0  0  0
  3  2  1  0  0  0  0
  4  3  1  0  0  0  0
 22  4  1  0  0  0  0
 23  4  1  0  0  0  0
  5  4  1  0  0  0  0
 24  5  1  0  0  0  0
 25  5  1  0  0  0  0
  6  5  1  0  0  0  0
 26  6  1  0  0  0  0
 27  6  1  0  0  0  0
  7  3  1  0  0  0  0
 28  7  1  0  0  0  0
 29  7  1  0  0  0  0
  8  6  1  0  0  0  0
  9  8  1  0  0  0  0
 30  8  1  0  0  0  0
 10  9  2  0  0  0  0
 11  9  1  0  0  0  0
 31 11  1  0  0  0  0
 32 11  1  0  0  0  0
 12  2  1  0  0  0  0
 33 12  1  0  0  0  0
 34 12  1  0  0  0  0
 13 12  1  0  0  0  0
 21 13  2  0  0  0  0
 14 13  1  0  0  0  0
 15 14  1  0  0  0  0
 16 15  1  0  0  0  0
 35 16  1  0  0  0  0
 36 16  1  0  0  0  0
 17 16  1  0  0  0  0
 37 17  1  0  0  0  0
 38 17  1  0  0  0  0
 18 14  2  0  0  0  0
 19 18  1  0  0  0  0
 39 19  1  0  0  0  0
 20 19  2  0  0  0  0
 40 20  1  0  0  0  0
 41 21  1  0  0  0  0
  8  7  1  0  0  0  0
 18 17  1  0  0  0  0
 21 20  1  0  0  0  0
M  END
>  <FittedScore>
-29.28

$$$$
