A71EV2A-x5151a_lowest-energy
  FITTED

 41 43     0  0  0  0  0  0  0999 V2000
    7.1945   13.4007   22.7893 O    0  0  0  0  0  0  0  0  0  0  0  0
    7.9850   14.0198   23.4901 C    0  0  0  0  0  0  0  0  0  0  0  0
    8.7623   15.0369   22.9699 N    0  0  0  0  0  0  0  0  0  0  0  0
    9.5179   16.0745   23.7538 C    0  0  0  0  0  0  0  0  0  0  0  0
   11.0066   16.1914   23.3303 C    0  0  0  0  0  0  0  0  0  0  0  0
   11.1433   16.4924   21.8135 C    0  0  0  0  0  0  0  0  0  0  0  0
    8.8395   15.3396   21.5020 C    0  0  0  0  0  0  0  0  0  0  0  0
   10.2953   15.5159   20.9456 C    0  0  0  0  0  0  0  0  0  0  0  0
   10.2856   15.9627   19.4790 C    0  0  0  0  0  0  0  0  0  0  0  0
    9.5493   16.8314   19.0410 O    0  0  0  0  0  0  0  0  0  0  0  0
   11.1219   15.3207   18.6421 N    0  0  0  0  0  0  0  0  0  0  0  0
    8.1496   13.6153   24.9697 C    0  0  0  0  0  0  0  0  0  0  0  0
    7.6309   12.2073   25.2668 C    0  0  0  0  0  0  0  0  0  0  0  0
    8.2479   11.0740   24.6964 C    0  0  0  0  0  0  0  0  0  0  0  0
    9.7025   11.0699   23.6962 S    0  0  0  0  0  0  0  0  0  0  0  0
    9.7823    9.2504   23.6337 C    0  0  0  0  0  0  0  0  0  0  0  0
    8.4602    8.6825   24.1773 C    0  0  0  0  0  0  0  0  0  0  0  0
    7.7087    9.8022   24.8655 C    0  0  0  0  0  0  0  0  0  0  0  0
    6.5424    9.6317   25.6194 C    0  0  0  0  0  0  0  0  0  0  0  0
    5.9385   10.7357   26.2357 C    0  0  0  0  0  0  0  0  0  0  0  0
    6.4822   12.0198   26.0629 C    0  0  0  0  0  0  0  0  0  0  0  0
    9.0304   17.0447   23.6109 H    0  0  0  0  0  0  0  0  0  0  0  0
    9.4825   15.9195   24.8310 H    0  0  0  0  0  0  0  0  0  0  0  0
   11.4907   16.9860   23.9026 H    0  0  0  0  0  0  0  0  0  0  0  0
   11.5285   15.2614   23.5745 H    0  0  0  0  0  0  0  0  0  0  0  0
   10.8342   17.5234   21.6212 H    0  0  0  0  0  0  0  0  0  0  0  0
   12.1950   16.4169   21.5268 H    0  0  0  0  0  0  0  0  0  0  0  0
    8.2476   16.2427   21.3203 H    0  0  0  0  0  0  0  0  0  0  0  0
    8.3654   14.5594   20.8990 H    0  0  0  0  0  0  0  0  0  0  0  0
   10.7665   14.5266   21.0110 H    0  0  0  0  0  0  0  0  0  0  0  0
   11.6779   14.5286   18.9464 H    0  0  0  0  0  0  0  0  0  0  0  0
   11.1016   15.5578   17.6554 H    0  0  0  0  0  0  0  0  0  0  0  0
    7.6398   14.3530   25.5967 H    0  0  0  0  0  0  0  0  0  0  0  0
    9.2007   13.6285   25.2714 H    0  0  0  0  0  0  0  0  0  0  0  0
   10.6261    8.9212   24.2451 H    0  0  0  0  0  0  0  0  0  0  0  0
    9.9594    8.9342   22.6028 H    0  0  0  0  0  0  0  0  0  0  0  0
    8.6585    7.8632   24.8746 H    0  0  0  0  0  0  0  0  0  0  0  0
    7.8594    8.2862   23.3535 H    0  0  0  0  0  0  0  0  0  0  0  0
    6.1140    8.6369   25.7456 H    0  0  0  0  0  0  0  0  0  0  0  0
    5.0439   10.5955   26.8369 H    0  0  0  0  0  0  0  0  0  0  0  0
    5.9889   12.8666   26.5304 H    0  0  0  0  0  0  0  0  0  0  0  0
  2  1  2  0  0  0  0
  3  2  1  0  0  0  0
  4  3  1  0  0  0  0
 22  4  1  0  0  0  0
 23  4  1  0  0  0  0
  5  4  1  0  0  0  0
 24  5  1  0  0  0  0
 25  5  1  0  0  0  0
  6  5  1  0  0  0  0
 26  6  1  0  0  0  0
 27  6  1  0  0  0  0
  7  3  1  0  0  0  0
 28  7  1  0  0  0  0
 29  7  1  0  0  0  0
  8  6  1  0  0  0  0
  9  8  1  0  0  0  0
 30  8  1  0  0  0  0
 10  9  2  0  0  0  0
 11  9  1  0  0  0  0
 31 11  1  0  0  0  0
 32 11  1  0  0  0  0
 12  2  1  0  0  0  0
 33 12  1  0  0  0  0
 34 12  1  0  0  0  0
 13 12  1  0  0  0  0
 21 13  2  0  0  0  0
 14 13  1  0  0  0  0
 15 14  1  0  0  0  0
 16 15  1  0  0  0  0
 35 16  1  0  0  0  0
 36 16  1  0  0  0  0
 17 16  1  0  0  0  0
 37 17  1  0  0  0  0
 38 17  1  0  0  0  0
 18 14  2  0  0  0  0
 19 18  1  0  0  0  0
 39 19  1  0  0  0  0
 20 19  2  0  0  0  0
 40 20  1  0  0  0  0
 41 21  1  0  0  0  0
  8  7  1  0  0  0  0
 18 17  1  0  0  0  0
 21 20  1  0  0  0  0
M  END
>  <FittedScore>
-30.13

$$$$
