A71EV2A-x3568a_lowest-energy
  FITTED

 35 37     0  0  0  0  0  0  0999 V2000
    9.9117   13.7085   25.3303 O    0  0  0  0  0  0  0  0  0  0  0  0
    9.7245   12.8574   24.4878 C    0  0  0  0  0  0  0  0  0  0  0  0
    8.7134   11.8772   24.6856 C    0  0  0  0  0  0  0  0  0  0  0  0
    8.5476   10.6729   24.1262 C    0  0  0  0  0  0  0  0  0  0  0  0
    7.4735    9.9898   24.6083 N    0  0  0  0  0  0  0  0  0  0  0  0
    6.8638   10.7632   25.5446 C    0  0  0  0  0  0  0  0  0  0  0  0
    7.5773   11.9435   25.6495 C    0  0  0  0  0  0  0  0  0  0  0  0
    7.1512   12.9594   26.5220 C    0  0  0  0  0  0  0  0  0  0  0  0
    5.9981   12.7455   27.2930 C    0  0  0  0  0  0  0  0  0  0  0  0
    5.7148   10.5309   26.3050 C    0  0  0  0  0  0  0  0  0  0  0  0
    5.2726   11.5369   27.1919 C    0  0  0  0  0  0  0  0  0  0  0  0
    4.0221   11.3030   28.0272 C    0  0  0  0  0  0  0  0  0  0  0  0
   10.5334   12.7228   23.4111 N    0  0  0  0  0  0  0  0  0  0  0  0
   11.8184   13.4223   23.2486 C    0  0  0  0  0  0  0  0  0  0  0  0
   11.7112   14.8741   22.7423 C    0  0  0  0  0  0  0  0  0  0  0  0
   11.1309   15.0428   21.3536 C    0  0  0  0  0  0  0  0  0  0  0  0
    9.7481   15.4512   21.0715 N    0  0  0  0  0  0  0  0  0  0  0  0
    9.8045   15.4889   19.6056 C    0  0  0  0  0  0  0  0  0  0  0  0
   11.0315   15.1237   19.1047 O    0  0  0  0  0  0  0  0  0  0  0  0
   11.8329   14.8460   20.1772 C    0  0  0  0  0  0  0  0  0  0  0  0
    9.1777   10.2172   23.3630 H    0  0  0  0  0  0  0  0  0  0  0  0
    7.3877    8.9712   24.6369 H    0  0  0  0  0  0  0  0  0  0  0  0
    7.6853   13.8994   26.6032 H    0  0  0  0  0  0  0  0  0  0  0  0
    5.6690   13.5395   27.9601 H    0  0  0  0  0  0  0  0  0  0  0  0
    5.1645    9.5974   26.1983 H    0  0  0  0  0  0  0  0  0  0  0  0
    3.7049   12.2007   28.5664 H    0  0  0  0  0  0  0  0  0  0  0  0
    4.2035   10.5132   28.7596 H    0  0  0  0  0  0  0  0  0  0  0  0
    3.1943   10.9858   27.3897 H    0  0  0  0  0  0  0  0  0  0  0  0
   10.3266   12.0227   22.7059 H    0  0  0  0  0  0  0  0  0  0  0  0
   12.4153   12.8435   22.5381 H    0  0  0  0  0  0  0  0  0  0  0  0
   12.3759   13.4059   24.1937 H    0  0  0  0  0  0  0  0  0  0  0  0
   12.7101   15.3186   22.7485 H    0  0  0  0  0  0  0  0  0  0  0  0
   11.1210   15.4657   23.4502 H    0  0  0  0  0  0  0  0  0  0  0  0
    8.9456   15.7755   19.0047 H    0  0  0  0  0  0  0  0  0  0  0  0
   12.8749   14.5479   20.1045 H    0  0  0  0  0  0  0  0  0  0  0  0
  3  2  1  0  0  0  0
  4  3  2  0  0  0  0
 21  4  1  0  0  0  0
  1  2  2  0  0  0  0
  5  4  1  0  0  0  0
 22  5  1  0  0  0  0
  6  5  1  0  0  0  0
  7  3  1  0  0  0  0
  8  7  2  0  0  0  0
 23  8  1  0  0  0  0
  9  8  1  0  0  0  0
 24  9  1  0  0  0  0
 10  6  2  0  0  0  0
 25 10  1  0  0  0  0
 11  9  2  0  0  0  0
 12 11  1  0  0  0  0
 26 12  1  0  0  0  0
 27 12  1  0  0  0  0
 28 12  1  0  0  0  0
 13  2  1  0  0  0  0
 29 13  1  0  0  0  0
 14 13  1  0  0  0  0
 30 14  1  0  0  0  0
 31 14  1  0  0  0  0
 15 14  1  0  0  0  0
 32 15  1  0  0  0  0
 33 15  1  0  0  0  0
 16 15  1  0  0  0  0
 20 16  2  0  0  0  0
 17 16  1  0  0  0  0
 18 17  2  0  0  0  0
 34 18  1  0  0  0  0
 19 18  1  0  0  0  0
 35 20  1  0  0  0  0
  7  6  1  0  0  0  0
 11 10  1  0  0  0  0
 20 19  1  0  0  0  0
M  END
>  <FittedScore>
-31.02

$$$$
