A71EV2A-x3568a_best-RMSD
  FITTED

 35 37     0  0  0  0  0  0  0999 V2000
   10.8121   13.5902   25.2182 O    0  0  0  0  0  0  0  0  0  0  0  0
   10.4727   13.0439   24.1908 C    0  0  0  0  0  0  0  0  0  0  0  0
    9.4966   12.0169   24.2319 C    0  0  0  0  0  0  0  0  0  0  0  0
    9.4072   10.8741   23.5488 C    0  0  0  0  0  0  0  0  0  0  0  0
    8.3442   10.1084   23.9121 N    0  0  0  0  0  0  0  0  0  0  0  0
    7.6733   10.7577   24.9013 C    0  0  0  0  0  0  0  0  0  0  0  0
    8.3322   11.9478   25.1505 C    0  0  0  0  0  0  0  0  0  0  0  0
    7.8539   12.8530   26.1107 C    0  0  0  0  0  0  0  0  0  0  0  0
    6.7100   12.5048   26.8491 C    0  0  0  0  0  0  0  0  0  0  0  0
    6.5242   10.4087   25.6095 C    0  0  0  0  0  0  0  0  0  0  0  0
    6.0432   11.2807   26.6085 C    0  0  0  0  0  0  0  0  0  0  0  0
    4.8365   10.8799   27.4445 C    0  0  0  0  0  0  0  0  0  0  0  0
   10.9609   13.3915   22.9789 N    0  0  0  0  0  0  0  0  0  0  0  0
   11.8629   14.5392   22.7627 C    0  0  0  0  0  0  0  0  0  0  0  0
   11.9695   14.9533   21.2879 C    0  0  0  0  0  0  0  0  0  0  0  0
   10.7049   15.4735   20.6504 C    0  0  0  0  0  0  0  0  0  0  0  0
    9.7798   16.4175   21.2801 N    0  0  0  0  0  0  0  0  0  0  0  0
    8.9126   16.7338   20.1565 C    0  0  0  0  0  0  0  0  0  0  0  0
    9.2697   16.0453   19.0247 O    0  0  0  0  0  0  0  0  0  0  0  0
   10.3816   15.3131   19.3211 C    0  0  0  0  0  0  0  0  0  0  0  0
   10.0927   10.5176   22.7843 H    0  0  0  0  0  0  0  0  0  0  0  0
    8.1998    9.1184   23.7027 H    0  0  0  0  0  0  0  0  0  0  0  0
    8.3548   13.7989   26.2951 H    0  0  0  0  0  0  0  0  0  0  0  0
    6.3512   13.1889   27.6151 H    0  0  0  0  0  0  0  0  0  0  0  0
    6.0263    9.4640   25.4009 H    0  0  0  0  0  0  0  0  0  0  0  0
    5.1434   10.2088   28.2503 H    0  0  0  0  0  0  0  0  0  0  0  0
    4.0937   10.3591   26.8348 H    0  0  0  0  0  0  0  0  0  0  0  0
    4.3419   11.7469   27.8893 H    0  0  0  0  0  0  0  0  0  0  0  0
   10.7104   12.8368   22.1649 H    0  0  0  0  0  0  0  0  0  0  0  0
   12.8586   14.2745   23.1325 H    0  0  0  0  0  0  0  0  0  0  0  0
   11.5302   15.3974   23.3571 H    0  0  0  0  0  0  0  0  0  0  0  0
   12.3457   14.1014   20.7149 H    0  0  0  0  0  0  0  0  0  0  0  0
   12.7339   15.7302   21.2015 H    0  0  0  0  0  0  0  0  0  0  0  0
    8.0538   17.3961   20.2526 H    0  0  0  0  0  0  0  0  0  0  0  0
   10.9467   14.7407   18.5887 H    0  0  0  0  0  0  0  0  0  0  0  0
  3  2  1  0  0  0  0
  4  3  2  0  0  0  0
 21  4  1  0  0  0  0
  1  2  2  0  0  0  0
  5  4  1  0  0  0  0
 22  5  1  0  0  0  0
  6  5  1  0  0  0  0
  7  3  1  0  0  0  0
  8  7  2  0  0  0  0
 23  8  1  0  0  0  0
  9  8  1  0  0  0  0
 24  9  1  0  0  0  0
 10  6  2  0  0  0  0
 25 10  1  0  0  0  0
 11  9  2  0  0  0  0
 12 11  1  0  0  0  0
 26 12  1  0  0  0  0
 27 12  1  0  0  0  0
 28 12  1  0  0  0  0
 13  2  1  0  0  0  0
 29 13  1  0  0  0  0
 14 13  1  0  0  0  0
 30 14  1  0  0  0  0
 31 14  1  0  0  0  0
 15 14  1  0  0  0  0
 32 15  1  0  0  0  0
 33 15  1  0  0  0  0
 16 15  1  0  0  0  0
 20 16  2  0  0  0  0
 17 16  1  0  0  0  0
 18 17  2  0  0  0  0
 34 18  1  0  0  0  0
 19 18  1  0  0  0  0
 35 20  1  0  0  0  0
  7  6  1  0  0  0  0
 11 10  1  0  0  0  0
 20 19  1  0  0  0  0
M  END
>  <FittedScore>
-33.68

$$$$
