A71EV2A-x3550a_best-RMSD
  FITTED

 43 44     0  0  0  0  0  0  0999 V2000
   10.0966   16.9807   19.2601 O    0  0  0  0  0  0  0  0  0  0  0  0
   10.4320   15.8660   19.6228 C    0  0  0  0  0  0  0  0  0  0  0  0
   10.8035   14.9452   18.7092 N    0  0  0  0  0  0  0  0  0  0  0  0
   10.2471   15.3660   21.0598 C    0  0  0  0  0  0  0  0  0  0  0  0
    8.7212   15.2910   21.4151 C    0  0  0  0  0  0  0  0  0  0  0  0
   11.0876   16.2236   22.0626 C    0  0  0  0  0  0  0  0  0  0  0  0
   10.6721   15.9894   23.5391 C    0  0  0  0  0  0  0  0  0  0  0  0
    9.1240   16.0937   23.6986 C    0  0  0  0  0  0  0  0  0  0  0  0
    8.7310   16.3847   25.1768 C    0  0  0  0  0  0  0  0  0  0  0  0
    8.4269   15.0217   22.8660 N    0  0  0  0  0  0  0  0  0  0  0  0
    7.6614   13.9347   23.2599 C    0  0  0  0  0  0  0  0  0  0  0  0
    6.9600   13.3282   22.4616 O    0  0  0  0  0  0  0  0  0  0  0  0
    7.7429   13.4243   24.7063 C    0  0  0  0  0  0  0  0  0  0  0  0
    7.0308   12.1009   24.9928 C    0  0  0  0  0  0  0  0  0  0  0  0
    7.6167   10.8525   24.6789 C    0  0  0  0  0  0  0  0  0  0  0  0
    8.8502   10.8336   24.0275 O    0  0  0  0  0  0  0  0  0  0  0  0
    9.4215    9.6684   23.3867 C    0  0  0  0  0  0  0  0  0  0  0  0
    5.7662   12.1417   25.6162 C    0  0  0  0  0  0  0  0  0  0  0  0
    5.0940   10.9632   25.9501 C    0  0  0  0  0  0  0  0  0  0  0  0
    5.6842    9.7285   25.6684 C    0  0  0  0  0  0  0  0  0  0  0  0
    6.9296    9.6707   25.0318 C    0  0  0  0  0  0  0  0  0  0  0  0
   10.9236   13.9774   18.9833 H    0  0  0  0  0  0  0  0  0  0  0  0
   10.7961   15.1730   17.7166 H    0  0  0  0  0  0  0  0  0  0  0  0
   10.6305   14.3421   21.1479 H    0  0  0  0  0  0  0  0  0  0  0  0
    8.2196   16.2205   21.1384 H    0  0  0  0  0  0  0  0  0  0  0  0
    8.2809   14.5408   20.7524 H    0  0  0  0  0  0  0  0  0  0  0  0
   10.9843   17.2886   21.8316 H    0  0  0  0  0  0  0  0  0  0  0  0
   12.1465   15.9834   21.9423 H    0  0  0  0  0  0  0  0  0  0  0  0
   11.1826   16.7282   24.1639 H    0  0  0  0  0  0  0  0  0  0  0  0
   11.0167   15.0044   23.8693 H    0  0  0  0  0  0  0  0  0  0  0  0
    8.8392   17.0498   23.2438 H    0  0  0  0  0  0  0  0  0  0  0  0
    9.1177   15.6293   25.8639 H    0  0  0  0  0  0  0  0  0  0  0  0
    7.6468   16.4571   25.2856 H    0  0  0  0  0  0  0  0  0  0  0  0
    9.1399   17.3449   25.5014 H    0  0  0  0  0  0  0  0  0  0  0  0
    8.7887   13.3347   25.0087 H    0  0  0  0  0  0  0  0  0  0  0  0
    7.2907   14.1618   25.3648 H    0  0  0  0  0  0  0  0  0  0  0  0
   10.3300    9.9669   22.8578 H    0  0  0  0  0  0  0  0  0  0  0  0
    8.7266    9.2388   22.6597 H    0  0  0  0  0  0  0  0  0  0  0  0
    9.6882    8.9170   24.1330 H    0  0  0  0  0  0  0  0  0  0  0  0
    5.2968   13.0905   25.8528 H    0  0  0  0  0  0  0  0  0  0  0  0
    4.1214   11.0040   26.4337 H    0  0  0  0  0  0  0  0  0  0  0  0
    5.1800    8.8066   25.9420 H    0  0  0  0  0  0  0  0  0  0  0  0
    7.3528    8.6920   24.8302 H    0  0  0  0  0  0  0  0  0  0  0  0
 10 11  1  0  0  0  0
  5 10  1  0  0  0  0
  4  5  1  0  0  0  0
  2  4  1  0  0  0  0
  1  2  2  0  0  0  0
  3  2  1  0  0  0  0
 22  3  1  0  0  0  0
 23  3  1  0  0  0  0
 24  4  1  0  0  0  0
 25  5  1  0  0  0  0
 26  5  1  0  0  0  0
  6  4  1  0  0  0  0
 27  6  1  0  0  0  0
 28  6  1  0  0  0  0
  7  6  1  0  0  0  0
 29  7  1  0  0  0  0
 30  7  1  0  0  0  0
  8  7  1  0  0  0  0
  9  8  1  0  0  0  0
 31  8  1  0  0  0  0
 32  9  1  0  0  0  0
 33  9  1  0  0  0  0
 34  9  1  0  0  0  0
 12 11  2  0  0  0  0
 13 11  1  0  0  0  0
 35 13  1  0  0  0  0
 36 13  1  0  0  0  0
 14 13  1  0  0  0  0
 15 14  1  0  0  0  0
 21 15  2  0  0  0  0
 16 15  1  0  0  0  0
 17 16  1  0  0  0  0
 37 17  1  0  0  0  0
 38 17  1  0  0  0  0
 39 17  1  0  0  0  0
 18 14  2  0  0  0  0
 40 18  1  0  0  0  0
 19 18  1  0  0  0  0
 41 19  1  0  0  0  0
 20 19  2  0  0  0  0
 42 20  1  0  0  0  0
 43 21  1  0  0  0  0
 10  8  1  0  0  0  0
 21 20  1  0  0  0  0
M  END
>  <FittedScore>
-33.62

$$$$
