A71EV2A-x3550a_lowest-energy
  FITTED

 43 44     0  0  0  0  0  0  0999 V2000
    9.9792   17.0215   19.3147 O    0  0  0  0  0  0  0  0  0  0  0  0
   10.2960   15.8981   19.6570 C    0  0  0  0  0  0  0  0  0  0  0  0
   10.6746   14.9909   18.7321 N    0  0  0  0  0  0  0  0  0  0  0  0
   10.1490   15.3777   21.0964 C    0  0  0  0  0  0  0  0  0  0  0  0
    8.6462   15.3939   21.5526 C    0  0  0  0  0  0  0  0  0  0  0  0
   11.0934   16.1622   22.0666 C    0  0  0  0  0  0  0  0  0  0  0  0
   10.7879   15.8742   23.5641 C    0  0  0  0  0  0  0  0  0  0  0  0
    9.2581   16.0075   23.8520 C    0  0  0  0  0  0  0  0  0  0  0  0
    8.9435   16.1264   25.3746 C    0  0  0  0  0  0  0  0  0  0  0  0
    8.4700   15.0313   22.9953 N    0  0  0  0  0  0  0  0  0  0  0  0
    7.8122   13.8773   23.3730 C    0  0  0  0  0  0  0  0  0  0  0  0
    6.9550   13.3582   22.6666 O    0  0  0  0  0  0  0  0  0  0  0  0
    8.3467   13.0950   24.5749 C    0  0  0  0  0  0  0  0  0  0  0  0
    8.4314   11.5972   24.2991 C    0  0  0  0  0  0  0  0  0  0  0  0
    7.4842   10.6759   24.8031 C    0  0  0  0  0  0  0  0  0  0  0  0
    6.4330   11.1420   25.5930 O    0  0  0  0  0  0  0  0  0  0  0  0
    5.3720   10.3401   26.1845 C    0  0  0  0  0  0  0  0  0  0  0  0
    9.4750   11.1426   23.4721 C    0  0  0  0  0  0  0  0  0  0  0  0
    9.6031    9.7838   23.1677 C    0  0  0  0  0  0  0  0  0  0  0  0
    8.6801    8.8706   23.6712 C    0  0  0  0  0  0  0  0  0  0  0  0
    7.6271    9.3144   24.4774 C    0  0  0  0  0  0  0  0  0  0  0  0
   10.7959   14.0197   19.0012 H    0  0  0  0  0  0  0  0  0  0  0  0
   10.7026   15.2360   17.7478 H    0  0  0  0  0  0  0  0  0  0  0  0
   10.4725   14.3280   21.1403 H    0  0  0  0  0  0  0  0  0  0  0  0
    8.2029   16.3791   21.3768 H    0  0  0  0  0  0  0  0  0  0  0  0
    8.0934   14.7192   20.8930 H    0  0  0  0  0  0  0  0  0  0  0  0
   11.0027   17.2387   21.8897 H    0  0  0  0  0  0  0  0  0  0  0  0
   12.1331   15.8998   21.8497 H    0  0  0  0  0  0  0  0  0  0  0  0
   11.3573   16.5788   24.1784 H    0  0  0  0  0  0  0  0  0  0  0  0
   11.1361   14.8705   23.8220 H    0  0  0  0  0  0  0  0  0  0  0  0
    8.9769   17.0100   23.5064 H    0  0  0  0  0  0  0  0  0  0  0  0
    9.2187   17.1183   25.7496 H    0  0  0  0  0  0  0  0  0  0  0  0
    9.4959   15.4015   25.9778 H    0  0  0  0  0  0  0  0  0  0  0  0
    7.8761   15.9955   25.5681 H    0  0  0  0  0  0  0  0  0  0  0  0
    9.3636   13.3972   24.8282 H    0  0  0  0  0  0  0  0  0  0  0  0
    7.7423   13.3304   25.4574 H    0  0  0  0  0  0  0  0  0  0  0  0
    4.6741   11.0016   26.7009 H    0  0  0  0  0  0  0  0  0  0  0  0
    4.8233    9.7979   25.4115 H    0  0  0  0  0  0  0  0  0  0  0  0
    5.7883    9.6332   26.9065 H    0  0  0  0  0  0  0  0  0  0  0  0
   10.1971   11.8416   23.0566 H    0  0  0  0  0  0  0  0  0  0  0  0
   10.4147    9.4423   22.5293 H    0  0  0  0  0  0  0  0  0  0  0  0
    8.7781    7.8129   23.4367 H    0  0  0  0  0  0  0  0  0  0  0  0
    6.9241    8.5717   24.8405 H    0  0  0  0  0  0  0  0  0  0  0  0
 10 11  1  0  0  0  0
  5 10  1  0  0  0  0
  4  5  1  0  0  0  0
  2  4  1  0  0  0  0
  1  2  2  0  0  0  0
  3  2  1  0  0  0  0
 22  3  1  0  0  0  0
 23  3  1  0  0  0  0
 24  4  1  0  0  0  0
 25  5  1  0  0  0  0
 26  5  1  0  0  0  0
  6  4  1  0  0  0  0
 27  6  1  0  0  0  0
 28  6  1  0  0  0  0
  7  6  1  0  0  0  0
 29  7  1  0  0  0  0
 30  7  1  0  0  0  0
  8  7  1  0  0  0  0
  9  8  1  0  0  0  0
 31  8  1  0  0  0  0
 32  9  1  0  0  0  0
 33  9  1  0  0  0  0
 34  9  1  0  0  0  0
 12 11  2  0  0  0  0
 13 11  1  0  0  0  0
 35 13  1  0  0  0  0
 36 13  1  0  0  0  0
 14 13  1  0  0  0  0
 15 14  1  0  0  0  0
 21 15  2  0  0  0  0
 16 15  1  0  0  0  0
 17 16  1  0  0  0  0
 37 17  1  0  0  0  0
 38 17  1  0  0  0  0
 39 17  1  0  0  0  0
 18 14  2  0  0  0  0
 40 18  1  0  0  0  0
 19 18  1  0  0  0  0
 41 19  1  0  0  0  0
 20 19  2  0  0  0  0
 42 20  1  0  0  0  0
 43 21  1  0  0  0  0
 10  8  1  0  0  0  0
 21 20  1  0  0  0  0
M  END
>  <FittedScore>
-29.55

$$$$
