A71EV2A-x4771a_best-RMSD
  FITTED

 39 41     0  0  0  0  0  0  0999 V2000
    4.0865   13.4254   20.5528 O    0  0  0  0  0  0  0  0  0  0  0  0
    3.2645   13.5441   21.4392 C    0  0  0  0  0  0  0  0  0  0  0  0
    2.0197   13.0185   21.3019 N    0  0  0  0  0  0  0  0  0  0  0  0
    1.1319   12.9992   22.4090 C    0  0  0  0  0  0  0  0  0  0  0  0
    1.4460   13.5144   23.5628 N    0  0  0  0  0  0  0  0  0  0  0  0
    3.5777   14.1098   22.7378 C    0  0  0  0  0  0  0  0  0  0  0  0
    2.6323   14.0566   23.7239 C    0  0  0  0  0  0  0  0  0  0  0  0
    2.9193   14.6134   25.1193 C    0  0  0  0  0  0  0  0  0  0  0  0
    4.1829   15.5039   25.1390 C    0  0  0  0  0  0  0  0  0  0  0  0
    5.0104   14.6483   22.9883 C    0  0  0  0  0  0  0  0  0  0  0  0
    5.3389   14.8553   24.4388 N    0  0  0  0  0  0  0  0  0  0  0  0
    6.5203   14.5264   25.0836 C    0  0  0  0  0  0  0  0  0  0  0  0
    6.6512   14.7069   26.2824 O    0  0  0  0  0  0  0  0  0  0  0  0
    7.7677   14.0314   24.3266 C    0  0  0  0  0  0  0  0  0  0  0  0
    8.1834   12.5449   24.4424 C    0  0  0  0  0  0  0  0  0  0  0  0
    9.3722   12.0710   23.8158 C    0  0  0  0  0  0  0  0  0  0  0  0
   10.5655   13.1801   23.1037 S    0  0  0  0  0  0  0  0  0  0  0  0
   11.7856   13.2187   24.4537 C    0  0  0  0  0  0  0  0  0  0  0  0
    7.4146   11.6181   25.1783 C    0  0  0  0  0  0  0  0  0  0  0  0
    7.7619   10.2634   25.2072 C    0  0  0  0  0  0  0  0  0  0  0  0
    8.8460    9.7942   24.4591 C    0  0  0  0  0  0  0  0  0  0  0  0
    9.6640   10.6968   23.7830 C    0  0  0  0  0  0  0  0  0  0  0  0
    1.6832   12.7972   20.3674 H    0  0  0  0  0  0  0  0  0  0  0  0
    0.1603   12.5484   22.2274 H    0  0  0  0  0  0  0  0  0  0  0  0
    2.0742   15.2119   25.4809 H    0  0  0  0  0  0  0  0  0  0  0  0
    3.0367   13.7868   25.8309 H    0  0  0  0  0  0  0  0  0  0  0  0
    3.9591   16.4599   24.6546 H    0  0  0  0  0  0  0  0  0  0  0  0
    4.3943   15.7620   26.1776 H    0  0  0  0  0  0  0  0  0  0  0  0
    5.1506   15.5902   22.4499 H    0  0  0  0  0  0  0  0  0  0  0  0
    5.7017   13.9338   22.5417 H    0  0  0  0  0  0  0  0  0  0  0  0
    7.7494   14.3243   23.2808 H    0  0  0  0  0  0  0  0  0  0  0  0
    8.5961   14.6211   24.7284 H    0  0  0  0  0  0  0  0  0  0  0  0
   11.3007   13.5036   25.3900 H    0  0  0  0  0  0  0  0  0  0  0  0
   12.5623   13.9466   24.2165 H    0  0  0  0  0  0  0  0  0  0  0  0
   12.2402   12.2334   24.5604 H    0  0  0  0  0  0  0  0  0  0  0  0
    6.5158   11.9180   25.7058 H    0  0  0  0  0  0  0  0  0  0  0  0
    7.1598    9.5609   25.7751 H    0  0  0  0  0  0  0  0  0  0  0  0
    9.0798    8.7317   24.4461 H    0  0  0  0  0  0  0  0  0  0  0  0
   10.5425   10.3197   23.2611 H    0  0  0  0  0  0  0  0  0  0  0  0
  9 11  1  0  0  0  0
  8  9  1  0  0  0  0
  7  8  1  0  0  0  0
  5  7  1  0  0  0  0
  4  5  2  0  0  0  0
  3  4  1  0  0  0  0
  2  3  1  0  0  0  0
  1  2  2  0  0  0  0
 23  3  1  0  0  0  0
 24  4  1  0  0  0  0
  6  2  1  0  0  0  0
 25  8  1  0  0  0  0
 26  8  1  0  0  0  0
 27  9  1  0  0  0  0
 28  9  1  0  0  0  0
 10  6  1  0  0  0  0
 29 10  1  0  0  0  0
 30 10  1  0  0  0  0
 12 11  1  0  0  0  0
 13 12  2  0  0  0  0
 14 12  1  0  0  0  0
 31 14  1  0  0  0  0
 32 14  1  0  0  0  0
 15 14  1  0  0  0  0
 16 15  1  0  0  0  0
 22 16  2  0  0  0  0
 17 16  1  0  0  0  0
 18 17  1  0  0  0  0
 33 18  1  0  0  0  0
 34 18  1  0  0  0  0
 35 18  1  0  0  0  0
 19 15  2  0  0  0  0
 36 19  1  0  0  0  0
 20 19  1  0  0  0  0
 37 20  1  0  0  0  0
 21 20  2  0  0  0  0
 38 21  1  0  0  0  0
 39 22  1  0  0  0  0
  7  6  2  0  0  0  0
 11 10  1  0  0  0  0
 22 21  1  0  0  0  0
M  END
>  <FittedScore>
-18.87

$$$$
