A71EV2A-x4771a_lowest-energy
  FITTED

 39 41     0  0  0  0  0  0  0999 V2000
    3.5585   10.8531   19.5580 O    0  0  0  0  0  0  0  0  0  0  0  0
    2.7506   11.3725   20.3049 C    0  0  0  0  0  0  0  0  0  0  0  0
    1.4645   10.9378   20.3673 N    0  0  0  0  0  0  0  0  0  0  0  0
    0.5502   11.5488   21.2673 C    0  0  0  0  0  0  0  0  0  0  0  0
    0.9074   12.4806   22.1008 N    0  0  0  0  0  0  0  0  0  0  0  0
    3.0706   12.4882   21.1903 C    0  0  0  0  0  0  0  0  0  0  0  0
    2.1346   12.9403   22.0656 C    0  0  0  0  0  0  0  0  0  0  0  0
    2.4695   14.0069   23.1070 C    0  0  0  0  0  0  0  0  0  0  0  0
    3.6951   14.8488   22.6971 C    0  0  0  0  0  0  0  0  0  0  0  0
    4.4460   13.1531   21.0701 C    0  0  0  0  0  0  0  0  0  0  0  0
    4.8521   14.0408   22.2159 N    0  0  0  0  0  0  0  0  0  0  0  0
    6.1469   14.0972   22.6854 C    0  0  0  0  0  0  0  0  0  0  0  0
    7.0469   13.5475   22.0765 O    0  0  0  0  0  0  0  0  0  0  0  0
    6.4830   14.7139   24.0478 C    0  0  0  0  0  0  0  0  0  0  0  0
    6.3557   13.6657   25.1689 C    0  0  0  0  0  0  0  0  0  0  0  0
    7.3521   12.6875   25.4245 C    0  0  0  0  0  0  0  0  0  0  0  0
    8.9190   12.6765   24.5537 S    0  0  0  0  0  0  0  0  0  0  0  0
    9.2409   10.9414   24.1416 C    0  0  0  0  0  0  0  0  0  0  0  0
    5.1540   13.6152   25.9089 C    0  0  0  0  0  0  0  0  0  0  0  0
    4.9425   12.6372   26.8806 C    0  0  0  0  0  0  0  0  0  0  0  0
    5.9450   11.7043   27.1562 C    0  0  0  0  0  0  0  0  0  0  0  0
    7.1312   11.7186   26.4243 C    0  0  0  0  0  0  0  0  0  0  0  0
    1.1408   10.2185   19.7319 H    0  0  0  0  0  0  0  0  0  0  0  0
   -0.4646   11.1670   21.2372 H    0  0  0  0  0  0  0  0  0  0  0  0
    1.6211   14.6774   23.2729 H    0  0  0  0  0  0  0  0  0  0  0  0
    2.6656   13.5096   24.0601 H    0  0  0  0  0  0  0  0  0  0  0  0
    3.3988   15.5326   21.8989 H    0  0  0  0  0  0  0  0  0  0  0  0
    3.9195   15.5032   23.5310 H    0  0  0  0  0  0  0  0  0  0  0  0
    4.4850   13.7364   20.1488 H    0  0  0  0  0  0  0  0  0  0  0  0
    5.1824   12.3542   20.9505 H    0  0  0  0  0  0  0  0  0  0  0  0
    7.5015   15.1100   24.0220 H    0  0  0  0  0  0  0  0  0  0  0  0
    5.9096   15.6156   24.2726 H    0  0  0  0  0  0  0  0  0  0  0  0
    8.3589   10.5156   23.6559 H    0  0  0  0  0  0  0  0  0  0  0  0
    9.4784   10.3731   25.0417 H    0  0  0  0  0  0  0  0  0  0  0  0
   10.0872   10.8833   23.4558 H    0  0  0  0  0  0  0  0  0  0  0  0
    4.3640   14.3412   25.7407 H    0  0  0  0  0  0  0  0  0  0  0  0
    3.9990   12.5952   27.4222 H    0  0  0  0  0  0  0  0  0  0  0  0
    5.7878   10.9500   27.9239 H    0  0  0  0  0  0  0  0  0  0  0  0
    7.8808   10.9678   26.6475 H    0  0  0  0  0  0  0  0  0  0  0  0
  9 11  1  0  0  0  0
  8  9  1  0  0  0  0
  7  8  1  0  0  0  0
  5  7  1  0  0  0  0
  4  5  2  0  0  0  0
  3  4  1  0  0  0  0
  2  3  1  0  0  0  0
  1  2  2  0  0  0  0
 23  3  1  0  0  0  0
 24  4  1  0  0  0  0
  6  2  1  0  0  0  0
 25  8  1  0  0  0  0
 26  8  1  0  0  0  0
 27  9  1  0  0  0  0
 28  9  1  0  0  0  0
 10  6  1  0  0  0  0
 29 10  1  0  0  0  0
 30 10  1  0  0  0  0
 12 11  1  0  0  0  0
 13 12  2  0  0  0  0
 14 12  1  0  0  0  0
 31 14  1  0  0  0  0
 32 14  1  0  0  0  0
 15 14  1  0  0  0  0
 16 15  1  0  0  0  0
 22 16  2  0  0  0  0
 17 16  1  0  0  0  0
 18 17  1  0  0  0  0
 33 18  1  0  0  0  0
 34 18  1  0  0  0  0
 35 18  1  0  0  0  0
 19 15  2  0  0  0  0
 36 19  1  0  0  0  0
 20 19  1  0  0  0  0
 37 20  1  0  0  0  0
 21 20  2  0  0  0  0
 38 21  1  0  0  0  0
 39 22  1  0  0  0  0
  7  6  2  0  0  0  0
 11 10  1  0  0  0  0
 22 21  1  0  0  0  0
M  END
>  <FittedScore>
-22.70

$$$$
