A71EV2A-x5864a_best-RMSD
  FITTED

 50 52     0  0  0  0  0  0  0999 V2000
    9.4070    8.6870   23.6227 C    0  0  0  0  0  0  0  0  0  0  0  0
    9.2376   10.3942   24.2306 S    0  0  0  0  0  0  0  0  0  0  0  0
    7.6062   10.6051   24.9624 C    0  0  0  0  0  0  0  0  0  0  0  0
    6.8185    9.4954   25.2988 C    0  0  0  0  0  0  0  0  0  0  0  0
    5.5716    9.6448   25.9078 C    0  0  0  0  0  0  0  0  0  0  0  0
    5.0367   10.9191   26.1952 C    0  0  0  0  0  0  0  0  0  0  0  0
    3.7810   11.0572   26.8436 C    0  0  0  0  0  0  0  0  0  0  0  0
    3.0100   12.2251   26.8586 C    0  0  0  0  0  0  0  0  0  0  0  0
    1.4866   12.0605   27.7373 S    0  0  0  0  0  0  0  0  0  0  0  0
    1.9316   10.3994   28.1517 C    0  0  0  0  0  0  0  0  0  0  0  0
    1.1268    9.4965   29.0932 C    0  0  0  0  0  0  0  0  0  0  0  0
    1.0145    8.2399   28.6229 F    0  0  0  0  0  0  0  0  0  0  0  0
   -0.1360    9.9359   29.2364 F    0  0  0  0  0  0  0  0  0  0  0  0
    3.1493   10.0443   27.5821 C    0  0  0  0  0  0  0  0  0  0  0  0
    5.8175   12.0390   25.8164 C    0  0  0  0  0  0  0  0  0  0  0  0
    7.0920   11.8967   25.2316 C    0  0  0  0  0  0  0  0  0  0  0  0
    7.8993   13.1717   24.9348 C    0  0  0  0  0  0  0  0  0  0  0  0
    7.9467   13.5762   23.4502 C    0  0  0  0  0  0  0  0  0  0  0  0
    7.1407   13.0812   22.6770 O    0  0  0  0  0  0  0  0  0  0  0  0
    8.8350   14.5589   23.0436 N    0  0  0  0  0  0  0  0  0  0  0  0
    9.6750   15.4310   23.9472 C    0  0  0  0  0  0  0  0  0  0  0  0
   11.1474   15.6024   23.4837 C    0  0  0  0  0  0  0  0  0  0  0  0
   11.2320   16.1130   22.0249 C    0  0  0  0  0  0  0  0  0  0  0  0
   10.3695   15.2260   21.0850 C    0  0  0  0  0  0  0  0  0  0  0  0
   10.4053   15.7583   19.6551 C    0  0  0  0  0  0  0  0  0  0  0  0
   10.8453   14.8872   18.7296 N    0  0  0  0  0  0  0  0  0  0  0  0
    9.9671   16.8441   19.3202 O    0  0  0  0  0  0  0  0  0  0  0  0
    8.9114   15.0476   21.6209 C    0  0  0  0  0  0  0  0  0  0  0  0
   10.3632    8.5858   23.1075 H    0  0  0  0  0  0  0  0  0  0  0  0
    8.6031    8.4553   22.9202 H    0  0  0  0  0  0  0  0  0  0  0  0
    9.3925    7.9850   24.4571 H    0  0  0  0  0  0  0  0  0  0  0  0
    7.1645    8.4856   25.1139 H    0  0  0  0  0  0  0  0  0  0  0  0
    5.0241    8.7320   26.1245 H    0  0  0  0  0  0  0  0  0  0  0  0
    3.2703   13.1528   26.3543 H    0  0  0  0  0  0  0  0  0  0  0  0
    1.5956    9.4665   30.0796 H    0  0  0  0  0  0  0  0  0  0  0  0
    3.5731    9.0583   27.7569 H    0  0  0  0  0  0  0  0  0  0  0  0
    5.4763   13.0543   26.0061 H    0  0  0  0  0  0  0  0  0  0  0  0
    8.9056   13.0155   25.3319 H    0  0  0  0  0  0  0  0  0  0  0  0
    7.4992   14.0167   25.5040 H    0  0  0  0  0  0  0  0  0  0  0  0
    9.7214   15.0778   24.9754 H    0  0  0  0  0  0  0  0  0  0  0  0
    9.2020   16.4147   24.0144 H    0  0  0  0  0  0  0  0  0  0  0  0
   11.6745   14.6454   23.5740 H    0  0  0  0  0  0  0  0  0  0  0  0
   11.6576   16.3081   24.1436 H    0  0  0  0  0  0  0  0  0  0  0  0
   12.2745   16.0961   21.6936 H    0  0  0  0  0  0  0  0  0  0  0  0
   10.8990   17.1555   21.9797 H    0  0  0  0  0  0  0  0  0  0  0  0
   10.8179   14.2277   21.1021 H    0  0  0  0  0  0  0  0  0  0  0  0
   10.8389   15.1489   17.7520 H    0  0  0  0  0  0  0  0  0  0  0  0
   11.0523   13.9231   18.9826 H    0  0  0  0  0  0  0  0  0  0  0  0
    8.3982   14.3710   20.9321 H    0  0  0  0  0  0  0  0  0  0  0  0
    8.3718   15.9967   21.5558 H    0  0  0  0  0  0  0  0  0  0  0  0
 16 17  1  0  0  0  0
 15 16  2  0  0  0  0
  6 15  1  0  0  0  0
  5  6  2  0  0  0  0
  4  5  1  0  0  0  0
  3  4  2  0  0  0  0
  2  3  1  0  0  0  0
  1  2  1  0  0  0  0
 29  1  1  0  0  0  0
 30  1  1  0  0  0  0
 31  1  1  0  0  0  0
 32  4  1  0  0  0  0
 33  5  1  0  0  0  0
  7  6  1  0  0  0  0
  8  7  2  0  0  0  0
  9  8  1  0  0  0  0
 34  8  1  0  0  0  0
 10  9  1  0  0  0  0
 11 10  1  0  0  0  0
 14 10  2  0  0  0  0
 12 11  1  0  0  0  0
 13 11  1  0  0  0  0
 35 11  1  0  0  0  0
 36 14  1  0  0  0  0
 37 15  1  0  0  0  0
 18 17  1  0  0  0  0
 38 17  1  0  0  0  0
 39 17  1  0  0  0  0
 19 18  2  0  0  0  0
 20 18  1  0  0  0  0
 21 20  1  0  0  0  0
 22 21  1  0  0  0  0
 40 21  1  0  0  0  0
 41 21  1  0  0  0  0
 23 22  1  0  0  0  0
 42 22  1  0  0  0  0
 43 22  1  0  0  0  0
 24 23  1  0  0  0  0
 44 23  1  0  0  0  0
 45 23  1  0  0  0  0
 25 24  1  0  0  0  0
 28 24  1  0  0  0  0
 46 24  1  0  0  0  0
 26 25  1  0  0  0  0
 27 25  2  0  0  0  0
 47 26  1  0  0  0  0
 48 26  1  0  0  0  0
 49 28  1  0  0  0  0
 50 28  1  0  0  0  0
 14  7  1  0  0  0  0
 16  3  1  0  0  0  0
 28 20  1  0  0  0  0
M  END
>  <FittedScore>
-35.39

$$$$
