A71EV2A-x7576a_best-RMSD
  FITTED

 48 51     0  0  0  0  0  0  0999 V2000
    8.9343    8.5538   23.3758 C    0  0  0  0  0  0  0  0  0  0  0  0
    9.1655   10.2882   23.9125 S    0  0  0  0  0  0  0  0  0  0  0  0
    7.7262   10.6700   24.8976 C    0  0  0  0  0  0  0  0  0  0  0  0
    6.8665    9.6202   25.2805 C    0  0  0  0  0  0  0  0  0  0  0  0
    5.7334    9.8440   26.0456 C    0  0  0  0  0  0  0  0  0  0  0  0
    5.3113   11.1576   26.2986 C    0  0  0  0  0  0  0  0  0  0  0  0
    4.0186   11.4103   26.7612 C    0  0  0  0  0  0  0  0  0  0  0  0
    3.3996   12.6491   26.8225 C    0  0  0  0  0  0  0  0  0  0  0  0
    2.1284   12.4442   27.2629 C    0  0  0  0  0  0  0  0  0  0  0  0
    2.0196   11.1476   27.5460 N    0  0  0  0  0  0  0  0  0  0  0  0
    3.0385   10.3750   27.0950 N    0  0  0  0  0  0  0  0  0  0  0  0
    6.1968   12.2106   25.9827 C    0  0  0  0  0  0  0  0  0  0  0  0
    7.4041   11.9975   25.2805 C    0  0  0  0  0  0  0  0  0  0  0  0
    8.2304   13.2336   24.8834 C    0  0  0  0  0  0  0  0  0  0  0  0
    8.0632   13.6659   23.4068 C    0  0  0  0  0  0  0  0  0  0  0  0
    7.2588   13.1283   22.6563 O    0  0  0  0  0  0  0  0  0  0  0  0
    8.9371   14.6740   23.0454 N    0  0  0  0  0  0  0  0  0  0  0  0
    9.0792   15.2168   21.6811 C    0  0  0  0  0  0  0  0  0  0  0  0
   10.5295   15.2130   21.0530 C    0  0  0  0  0  0  0  0  0  0  0  0
   10.5853   15.7994   19.6129 C    0  0  0  0  0  0  0  0  0  0  0  0
   11.0758   15.0016   18.6443 N    0  0  0  0  0  0  0  0  0  0  0  0
   10.0653   16.8529   19.2857 O    0  0  0  0  0  0  0  0  0  0  0  0
   11.5835   15.9259   22.0132 C    0  0  0  0  0  0  0  0  0  0  0  0
   11.4264   15.4627   23.4810 C    0  0  0  0  0  0  0  0  0  0  0  0
   11.0552   14.1397   23.9313 C    0  0  0  0  0  0  0  0  0  0  0  0
   10.0129   15.1609   23.9967 C    0  0  0  0  0  0  0  0  0  0  0  0
    9.7879    8.2901   22.7186 H    0  0  0  0  0  0  0  0  0  0  0  0
    8.0133    8.3917   22.8107 H    0  0  0  0  0  0  0  0  0  0  0  0
    8.9222    7.9314   24.2710 H    0  0  0  0  0  0  0  0  0  0  0  0
    7.0393    8.5826   24.9888 H    0  0  0  0  0  0  0  0  0  0  0  0
    5.1598    8.9648   26.3248 H    0  0  0  0  0  0  0  0  0  0  0  0
    3.7343   13.5566   26.3311 H    0  0  0  0  0  0  0  0  0  0  0  0
    1.3344   13.1508   27.1385 H    0  0  0  0  0  0  0  0  0  0  0  0
    1.1961   10.7491   27.9756 H    0  0  0  0  0  0  0  0  0  0  0  0
    5.9169   13.2345   26.2121 H    0  0  0  0  0  0  0  0  0  0  0  0
    9.2835   13.0692   25.1426 H    0  0  0  0  0  0  0  0  0  0  0  0
    7.9891   14.1013   25.4927 H    0  0  0  0  0  0  0  0  0  0  0  0
    8.7755   16.2486   21.8357 H    0  0  0  0  0  0  0  0  0  0  0  0
    8.3357   14.7039   21.0458 H    0  0  0  0  0  0  0  0  0  0  0  0
   10.8567   14.1747   20.9164 H    0  0  0  0  0  0  0  0  0  0  0  0
   11.0819   15.3315   17.6945 H    0  0  0  0  0  0  0  0  0  0  0  0
   11.2801   14.0485   18.9109 H    0  0  0  0  0  0  0  0  0  0  0  0
   11.3712   16.9933   22.0486 H    0  0  0  0  0  0  0  0  0  0  0  0
   12.5960   15.8252   21.6347 H    0  0  0  0  0  0  0  0  0  0  0  0
   12.1872   15.8636   24.1309 H    0  0  0  0  0  0  0  0  0  0  0  0
   11.6653   13.7824   24.7294 H    0  0  0  0  0  0  0  0  0  0  0  0
   11.1601   13.4385   23.0708 H    0  0  0  0  0  0  0  0  0  0  0  0
    9.5471   14.9656   24.9969 H    0  0  0  0  0  0  0  0  0  0  0  0
 14 15  1  0  0  0  0
 13 14  1  0  0  0  0
 12 13  2  0  0  0  0
  6 12  1  0  0  0  0
  5  6  2  0  0  0  0
  4  5  1  0  0  0  0
  3  4  2  0  0  0  0
  2  3  1  0  0  0  0
  1  2  1  0  0  0  0
 27  1  1  0  0  0  0
 28  1  1  0  0  0  0
 29  1  1  0  0  0  0
 30  4  1  0  0  0  0
 31  5  1  0  0  0  0
  7  6  1  0  0  0  0
  8  7  1  0  0  0  0
  9  8  2  0  0  0  0
 32  8  1  0  0  0  0
 10  9  1  0  0  0  0
 33  9  1  0  0  0  0
 11 10  1  0  0  0  0
 34 10  1  0  0  0  0
 35 12  1  0  0  0  0
 36 14  1  0  0  0  0
 37 14  1  0  0  0  0
 16 15  2  0  0  0  0
 17 15  1  0  0  0  0
 18 17  1  0  0  0  0
 19 18  1  0  0  0  0
 38 18  1  0  0  0  0
 39 18  1  0  0  0  0
 20 19  1  0  0  0  0
 23 19  1  0  0  0  0
 40 19  1  0  0  0  0
 21 20  1  0  0  0  0
 22 20  2  0  0  0  0
 41 21  1  0  0  0  0
 42 21  1  0  0  0  0
 43 23  1  0  0  0  0
 44 23  1  0  0  0  0
 24 23  1  0  0  0  0
 25 24  1  0  0  0  0
 45 24  1  0  0  0  0
 46 25  1  0  0  0  0
 47 25  1  0  0  0  0
 26 25  1  0  0  0  0
 48 26  1  0  0  0  0
 11  7  2  0  0  0  0
 13  3  1  0  0  0  0
 26 17  1  0  0  0  0
 26 24  1  0  0  0  0
M  END
>  <FittedScore>
-36.28

$$$$
