A71EV2A-x3575a_best-RMSD
  FITTED

 41 42     0  0  0  0  0  0  0999 V2000
   10.2058   16.9024   19.0557 O    0  0  0  0  0  0  0  0  0  0  0  0
   10.5867   15.8419   19.5079 C    0  0  0  0  0  0  0  0  0  0  0  0
   10.8572   14.8269   18.6752 N    0  0  0  0  0  0  0  0  0  0  0  0
   10.5516   15.4759   20.9853 C    0  0  0  0  0  0  0  0  0  0  0  0
   11.5052   16.3759   21.8305 C    0  0  0  0  0  0  0  0  0  0  0  0
   11.4168   16.0010   23.3328 C    0  0  0  0  0  0  0  0  0  0  0  0
    9.9455   15.9433   23.8201 C    0  0  0  0  0  0  0  0  0  0  0  0
    9.0983   15.5101   21.5500 C    0  0  0  0  0  0  0  0  0  0  0  0
    9.0909   15.0443   22.9693 N    0  0  0  0  0  0  0  0  0  0  0  0
    8.5271   13.8524   23.3587 C    0  0  0  0  0  0  0  0  0  0  0  0
    7.6693   13.3084   22.6772 O    0  0  0  0  0  0  0  0  0  0  0  0
    9.1659   13.1220   24.5528 C    0  0  0  0  0  0  0  0  0  0  0  0
    8.5434   11.7524   24.8065 C    0  0  0  0  0  0  0  0  0  0  0  0
    7.4280   11.6030   25.6587 C    0  0  0  0  0  0  0  0  0  0  0  0
    6.8989   12.7044   26.3259 O    0  0  0  0  0  0  0  0  0  0  0  0
    5.7213   13.3925   25.8309 C    0  0  0  0  0  0  0  0  0  0  0  0
    9.0504   10.6376   24.1084 C    0  0  0  0  0  0  0  0  0  0  0  0
    8.4521    9.3832   24.2520 C    0  0  0  0  0  0  0  0  0  0  0  0
    7.3622    9.2252   25.1180 C    0  0  0  0  0  0  0  0  0  0  0  0
    6.8650   10.3216   25.8383 C    0  0  0  0  0  0  0  0  0  0  0  0
    5.8013   10.1182   26.7862 C    0  0  0  0  0  0  0  0  0  0  0  0
    4.9769    9.9856   27.5578 N    0  0  0  0  0  0  0  0  0  0  0  0
   10.7321   14.9568   17.6806 H    0  0  0  0  0  0  0  0  0  0  0  0
   10.9832   13.8846   19.0317 H    0  0  0  0  0  0  0  0  0  0  0  0
   10.9106   14.4458   21.1145 H    0  0  0  0  0  0  0  0  0  0  0  0
   12.5378   16.2566   21.4779 H    0  0  0  0  0  0  0  0  0  0  0  0
   11.2432   17.4303   21.6977 H    0  0  0  0  0  0  0  0  0  0  0  0
   11.8966   15.0333   23.4974 H    0  0  0  0  0  0  0  0  0  0  0  0
   11.9685   16.7327   23.9261 H    0  0  0  0  0  0  0  0  0  0  0  0
    9.9348   15.6777   24.8715 H    0  0  0  0  0  0  0  0  0  0  0  0
    9.5193   16.9518   23.8000 H    0  0  0  0  0  0  0  0  0  0  0  0
    8.4471   14.9131   20.9009 H    0  0  0  0  0  0  0  0  0  0  0  0
    8.6934   16.5257   21.4969 H    0  0  0  0  0  0  0  0  0  0  0  0
   10.2426   13.0127   24.3846 H    0  0  0  0  0  0  0  0  0  0  0  0
    9.0685   13.7197   25.4641 H    0  0  0  0  0  0  0  0  0  0  0  0
    4.8950   12.6945   25.6862 H    0  0  0  0  0  0  0  0  0  0  0  0
    5.9320   13.8934   24.8816 H    0  0  0  0  0  0  0  0  0  0  0  0
    5.4241   14.1437   26.5611 H    0  0  0  0  0  0  0  0  0  0  0  0
    9.9008   10.7520   23.4406 H    0  0  0  0  0  0  0  0  0  0  0  0
    8.8388    8.5343   23.6921 H    0  0  0  0  0  0  0  0  0  0  0  0
    6.9134    8.2363   25.2316 H    0  0  0  0  0  0  0  0  0  0  0  0
  9 10  1  0  0  0  0
  7  9  1  0  0  0  0
  6  7  1  0  0  0  0
  5  6  1  0  0  0  0
  4  5  1  0  0  0  0
  2  4  1  0  0  0  0
  1  2  2  0  0  0  0
  3  2  1  0  0  0  0
 23  3  1  0  0  0  0
 24  3  1  0  0  0  0
 25  4  1  0  0  0  0
 26  5  1  0  0  0  0
 27  5  1  0  0  0  0
 28  6  1  0  0  0  0
 29  6  1  0  0  0  0
 30  7  1  0  0  0  0
 31  7  1  0  0  0  0
  8  4  1  0  0  0  0
 32  8  1  0  0  0  0
 33  8  1  0  0  0  0
 11 10  2  0  0  0  0
 12 10  1  0  0  0  0
 34 12  1  0  0  0  0
 35 12  1  0  0  0  0
 13 12  1  0  0  0  0
 14 13  1  0  0  0  0
 20 14  2  0  0  0  0
 15 14  1  0  0  0  0
 16 15  1  0  0  0  0
 36 16  1  0  0  0  0
 37 16  1  0  0  0  0
 38 16  1  0  0  0  0
 17 13  2  0  0  0  0
 39 17  1  0  0  0  0
 18 17  1  0  0  0  0
 40 18  1  0  0  0  0
 19 18  2  0  0  0  0
 41 19  1  0  0  0  0
 21 20  1  0  0  0  0
 22 21  3  0  0  0  0
  9  8  1  0  0  0  0
 20 19  1  0  0  0  0
M  END
>  <FittedScore>
-34.72

$$$$
