A71EV2A-x3575a_lowest-energy
  FITTED

 41 42     0  0  0  0  0  0  0999 V2000
   10.0574   16.8673   19.0079 O    0  0  0  0  0  0  0  0  0  0  0  0
   10.5704   15.8539   19.4429 C    0  0  0  0  0  0  0  0  0  0  0  0
   11.0115   14.8932   18.6145 N    0  0  0  0  0  0  0  0  0  0  0  0
   10.6443   15.4930   20.9190 C    0  0  0  0  0  0  0  0  0  0  0  0
   11.7758   16.2731   21.6454 C    0  0  0  0  0  0  0  0  0  0  0  0
   11.8318   15.8722   23.1448 C    0  0  0  0  0  0  0  0  0  0  0  0
   10.4296   15.8876   23.8203 C    0  0  0  0  0  0  0  0  0  0  0  0
    9.2883   15.6839   21.6577 C    0  0  0  0  0  0  0  0  0  0  0  0
    9.4096   15.1145   23.0361 N    0  0  0  0  0  0  0  0  0  0  0  0
    8.8682   13.8891   23.3601 C    0  0  0  0  0  0  0  0  0  0  0  0
    8.0106   13.3778   22.6536 O    0  0  0  0  0  0  0  0  0  0  0  0
    9.5172   13.0702   24.4881 C    0  0  0  0  0  0  0  0  0  0  0  0
    8.8945   11.6773   24.6475 C    0  0  0  0  0  0  0  0  0  0  0  0
    7.7902   11.4520   25.4997 C    0  0  0  0  0  0  0  0  0  0  0  0
    7.2802   12.4918   26.2677 O    0  0  0  0  0  0  0  0  0  0  0  0
    6.1228   13.2457   25.8275 C    0  0  0  0  0  0  0  0  0  0  0  0
    9.3874   10.6147   23.8643 C    0  0  0  0  0  0  0  0  0  0  0  0
    8.8014    9.3461   23.9273 C    0  0  0  0  0  0  0  0  0  0  0  0
    7.7206    9.1205   24.7884 C    0  0  0  0  0  0  0  0  0  0  0  0
    7.2250   10.1605   25.5875 C    0  0  0  0  0  0  0  0  0  0  0  0
    6.1576    9.8926   26.5181 C    0  0  0  0  0  0  0  0  0  0  0  0
    5.3311    9.7192   27.2758 N    0  0  0  0  0  0  0  0  0  0  0  0
   10.9133   15.0231   17.6114 H    0  0  0  0  0  0  0  0  0  0  0  0
   11.2957   13.9745   18.9737 H    0  0  0  0  0  0  0  0  0  0  0  0
   10.8931   14.4252   20.9998 H    0  0  0  0  0  0  0  0  0  0  0  0
   12.7341   16.0523   21.1686 H    0  0  0  0  0  0  0  0  0  0  0  0
   11.6162   17.3506   21.5513 H    0  0  0  0  0  0  0  0  0  0  0  0
   12.2635   14.8705   23.2351 H    0  0  0  0  0  0  0  0  0  0  0  0
   12.5030   16.5549   23.6727 H    0  0  0  0  0  0  0  0  0  0  0  0
   10.5267   15.5421   24.8481 H    0  0  0  0  0  0  0  0  0  0  0  0
   10.0947   16.9258   23.9179 H    0  0  0  0  0  0  0  0  0  0  0  0
    8.4879   15.2236   21.0701 H    0  0  0  0  0  0  0  0  0  0  0  0
    9.0214   16.7446   21.7064 H    0  0  0  0  0  0  0  0  0  0  0  0
   10.5861   12.9567   24.2856 H    0  0  0  0  0  0  0  0  0  0  0  0
    9.4562   13.6058   25.4401 H    0  0  0  0  0  0  0  0  0  0  0  0
    5.8692   13.9868   26.5881 H    0  0  0  0  0  0  0  0  0  0  0  0
    5.2650   12.5898   25.6813 H    0  0  0  0  0  0  0  0  0  0  0  0
    6.3325   13.7603   24.8879 H    0  0  0  0  0  0  0  0  0  0  0  0
   10.2171   10.7740   23.1779 H    0  0  0  0  0  0  0  0  0  0  0  0
    9.1784    8.5458   23.2971 H    0  0  0  0  0  0  0  0  0  0  0  0
    7.2707    8.1299   24.8315 H    0  0  0  0  0  0  0  0  0  0  0  0
  9 10  1  0  0  0  0
  7  9  1  0  0  0  0
  6  7  1  0  0  0  0
  5  6  1  0  0  0  0
  4  5  1  0  0  0  0
  2  4  1  0  0  0  0
  1  2  2  0  0  0  0
  3  2  1  0  0  0  0
 23  3  1  0  0  0  0
 24  3  1  0  0  0  0
 25  4  1  0  0  0  0
 26  5  1  0  0  0  0
 27  5  1  0  0  0  0
 28  6  1  0  0  0  0
 29  6  1  0  0  0  0
 30  7  1  0  0  0  0
 31  7  1  0  0  0  0
  8  4  1  0  0  0  0
 32  8  1  0  0  0  0
 33  8  1  0  0  0  0
 11 10  2  0  0  0  0
 12 10  1  0  0  0  0
 34 12  1  0  0  0  0
 35 12  1  0  0  0  0
 13 12  1  0  0  0  0
 14 13  1  0  0  0  0
 20 14  2  0  0  0  0
 15 14  1  0  0  0  0
 16 15  1  0  0  0  0
 36 16  1  0  0  0  0
 37 16  1  0  0  0  0
 38 16  1  0  0  0  0
 17 13  2  0  0  0  0
 39 17  1  0  0  0  0
 18 17  1  0  0  0  0
 40 18  1  0  0  0  0
 19 18  2  0  0  0  0
 41 19  1  0  0  0  0
 21 20  1  0  0  0  0
 22 21  3  0  0  0  0
  9  8  1  0  0  0  0
 20 19  1  0  0  0  0
M  END
>  <FittedScore>
-32.73

$$$$
