A71EV2A-x5581a_lowest-energy
  FITTED

 42 43     0  0  0  0  0  0  0999 V2000
    4.4524   14.0994   25.4164 C    0  0  0  0  0  0  0  0  0  0  0  0
    5.3734   13.4941   26.8703 S    0  0  0  0  0  0  0  0  0  0  0  0
    6.1387   11.9959   26.2684 C    0  0  0  0  0  0  0  0  0  0  0  0
    5.4889   10.8577   26.6303 N    0  0  0  0  0  0  0  0  0  0  0  0
    5.9986    9.6730   26.2081 C    0  0  0  0  0  0  0  0  0  0  0  0
    7.1167    9.5372   25.4450 N    0  0  0  0  0  0  0  0  0  0  0  0
    7.8005   10.6591   25.0910 C    0  0  0  0  0  0  0  0  0  0  0  0
    9.2992   10.4542   24.1194 S    0  0  0  0  0  0  0  0  0  0  0  0
    9.3992    8.7124   23.5936 C    0  0  0  0  0  0  0  0  0  0  0  0
    7.3340   11.9451   25.4909 C    0  0  0  0  0  0  0  0  0  0  0  0
    8.1200   13.2132   25.1142 C    0  0  0  0  0  0  0  0  0  0  0  0
    7.9784   13.6766   23.6539 C    0  0  0  0  0  0  0  0  0  0  0  0
    7.1252   13.1662   22.9343 O    0  0  0  0  0  0  0  0  0  0  0  0
    8.8158   14.6793   23.1917 N    0  0  0  0  0  0  0  0  0  0  0  0
    9.7172   15.5531   24.0331 C    0  0  0  0  0  0  0  0  0  0  0  0
   11.1653   15.7139   23.4891 C    0  0  0  0  0  0  0  0  0  0  0  0
   11.1735   16.2027   22.0203 C    0  0  0  0  0  0  0  0  0  0  0  0
   10.2380   15.3190   21.1544 C    0  0  0  0  0  0  0  0  0  0  0  0
   10.1895   15.8267   19.7209 C    0  0  0  0  0  0  0  0  0  0  0  0
   10.6307   14.9300   18.8161 N    0  0  0  0  0  0  0  0  0  0  0  0
    9.6756   16.8825   19.3880 O    0  0  0  0  0  0  0  0  0  0  0  0
    8.8114   15.1640   21.7707 C    0  0  0  0  0  0  0  0  0  0  0  0
    3.7833   13.3121   25.0594 H    0  0  0  0  0  0  0  0  0  0  0  0
    5.1454   14.3680   24.6202 H    0  0  0  0  0  0  0  0  0  0  0  0
    3.8674   14.9781   25.6990 H    0  0  0  0  0  0  0  0  0  0  0  0
    5.4783    8.7636   26.5002 H    0  0  0  0  0  0  0  0  0  0  0  0
    9.4963    8.0622   24.4628 H    0  0  0  0  0  0  0  0  0  0  0  0
   10.2762    8.5773   22.9572 H    0  0  0  0  0  0  0  0  0  0  0  0
    8.5138    8.4393   23.0221 H    0  0  0  0  0  0  0  0  0  0  0  0
    9.1703   13.0251   25.3505 H    0  0  0  0  0  0  0  0  0  0  0  0
    7.8503   14.0419   25.7680 H    0  0  0  0  0  0  0  0  0  0  0  0
    9.8103   15.2243   25.0686 H    0  0  0  0  0  0  0  0  0  0  0  0
    9.2604   16.5469   24.1034 H    0  0  0  0  0  0  0  0  0  0  0  0
   11.6937   14.7550   23.5575 H    0  0  0  0  0  0  0  0  0  0  0  0
   11.7169   16.4262   24.1100 H    0  0  0  0  0  0  0  0  0  0  0  0
   12.1936   16.1528   21.6290 H    0  0  0  0  0  0  0  0  0  0  0  0
   10.8653   17.2532   21.9745 H    0  0  0  0  0  0  0  0  0  0  0  0
   10.6764   14.3135   21.1655 H    0  0  0  0  0  0  0  0  0  0  0  0
   10.9037   13.9936   19.1163 H    0  0  0  0  0  0  0  0  0  0  0  0
   10.5070   15.1107   17.8299 H    0  0  0  0  0  0  0  0  0  0  0  0
    8.2610   14.4837   21.1160 H    0  0  0  0  0  0  0  0  0  0  0  0
    8.2738   16.1141   21.7187 H    0  0  0  0  0  0  0  0  0  0  0  0
 11 12  1  0  0  0  0
 10 11  1  0  0  0  0
  7 10  2  0  0  0  0
  6  7  1  0  0  0  0
  5  6  2  0  0  0  0
  4  5  1  0  0  0  0
  3  4  2  0  0  0  0
  2  3  1  0  0  0  0
  1  2  1  0  0  0  0
 23  1  1  0  0  0  0
 24  1  1  0  0  0  0
 25  1  1  0  0  0  0
 26  5  1  0  0  0  0
  8  7  1  0  0  0  0
  9  8  1  0  0  0  0
 27  9  1  0  0  0  0
 28  9  1  0  0  0  0
 29  9  1  0  0  0  0
 30 11  1  0  0  0  0
 31 11  1  0  0  0  0
 13 12  2  0  0  0  0
 14 12  1  0  0  0  0
 15 14  1  0  0  0  0
 16 15  1  0  0  0  0
 32 15  1  0  0  0  0
 33 15  1  0  0  0  0
 17 16  1  0  0  0  0
 34 16  1  0  0  0  0
 35 16  1  0  0  0  0
 18 17  1  0  0  0  0
 36 17  1  0  0  0  0
 37 17  1  0  0  0  0
 19 18  1  0  0  0  0
 22 18  1  0  0  0  0
 38 18  1  0  0  0  0
 20 19  1  0  0  0  0
 21 19  2  0  0  0  0
 39 20  1  0  0  0  0
 40 20  1  0  0  0  0
 41 22  1  0  0  0  0
 42 22  1  0  0  0  0
 10  3  1  0  0  0  0
 22 14  1  0  0  0  0
M  END
>  <FittedScore>
-29.32

$$$$
