A71EV2A-x5581a_best-RMSD
  FITTED

 42 43     0  0  0  0  0  0  0999 V2000
    4.7099   14.2824   25.5146 C    0  0  0  0  0  0  0  0  0  0  0  0
    5.5619   13.5563   26.9526 S    0  0  0  0  0  0  0  0  0  0  0  0
    6.2451   12.0448   26.2925 C    0  0  0  0  0  0  0  0  0  0  0  0
    5.5464   10.9284   26.6344 N    0  0  0  0  0  0  0  0  0  0  0  0
    6.0000    9.7319   26.1850 C    0  0  0  0  0  0  0  0  0  0  0  0
    7.1121    9.5595   25.4269 N    0  0  0  0  0  0  0  0  0  0  0  0
    7.8372   10.6606   25.0805 C    0  0  0  0  0  0  0  0  0  0  0  0
    9.3098   10.4046   24.0784 S    0  0  0  0  0  0  0  0  0  0  0  0
    9.4223    8.6205   23.7277 C    0  0  0  0  0  0  0  0  0  0  0  0
    7.4258   11.9606   25.4946 C    0  0  0  0  0  0  0  0  0  0  0  0
    8.2417   13.2024   25.1009 C    0  0  0  0  0  0  0  0  0  0  0  0
    8.0755   13.6809   23.6417 C    0  0  0  0  0  0  0  0  0  0  0  0
    7.1852   13.2108   22.9413 O    0  0  0  0  0  0  0  0  0  0  0  0
    8.9222   14.6754   23.1765 N    0  0  0  0  0  0  0  0  0  0  0  0
    9.8505   15.5201   24.0225 C    0  0  0  0  0  0  0  0  0  0  0  0
   11.2957   15.6423   23.4728 C    0  0  0  0  0  0  0  0  0  0  0  0
   11.3061   16.1375   22.0062 C    0  0  0  0  0  0  0  0  0  0  0  0
   10.3623   15.2701   21.1293 C    0  0  0  0  0  0  0  0  0  0  0  0
   10.3269   15.7830   19.6882 C    0  0  0  0  0  0  0  0  0  0  0  0
   10.6908   14.8751   18.7637 N    0  0  0  0  0  0  0  0  0  0  0  0
    9.8952   16.8713   19.3510 O    0  0  0  0  0  0  0  0  0  0  0  0
    8.9328   15.1472   21.7496 C    0  0  0  0  0  0  0  0  0  0  0  0
    5.4284   14.5153   24.7299 H    0  0  0  0  0  0  0  0  0  0  0  0
    4.1965   15.1980   25.8191 H    0  0  0  0  0  0  0  0  0  0  0  0
    3.9791   13.5680   25.1312 H    0  0  0  0  0  0  0  0  0  0  0  0
    5.4295    8.8452   26.4450 H    0  0  0  0  0  0  0  0  0  0  0  0
    9.5121    8.0692   24.6644 H    0  0  0  0  0  0  0  0  0  0  0  0
   10.3003    8.4093   23.1131 H    0  0  0  0  0  0  0  0  0  0  0  0
    8.5254    8.3035   23.1913 H    0  0  0  0  0  0  0  0  0  0  0  0
    9.2903   12.9733   25.3053 H    0  0  0  0  0  0  0  0  0  0  0  0
    8.0232   14.0340   25.7702 H    0  0  0  0  0  0  0  0  0  0  0  0
    9.9506   15.1742   25.0480 H    0  0  0  0  0  0  0  0  0  0  0  0
    9.4181   16.5215   24.1103 H    0  0  0  0  0  0  0  0  0  0  0  0
   11.7991   14.6718   23.5382 H    0  0  0  0  0  0  0  0  0  0  0  0
   11.8689   16.3356   24.0956 H    0  0  0  0  0  0  0  0  0  0  0  0
   12.3262   16.0789   21.6195 H    0  0  0  0  0  0  0  0  0  0  0  0
   11.0121   17.1912   21.9714 H    0  0  0  0  0  0  0  0  0  0  0  0
   10.7821   14.2539   21.1406 H    0  0  0  0  0  0  0  0  0  0  0  0
   10.8777   13.9130   19.0438 H    0  0  0  0  0  0  0  0  0  0  0  0
   10.6203   15.1004   17.7779 H    0  0  0  0  0  0  0  0  0  0  0  0
    8.3629   14.4773   21.1017 H    0  0  0  0  0  0  0  0  0  0  0  0
    8.4167   16.1097   21.6989 H    0  0  0  0  0  0  0  0  0  0  0  0
 11 12  1  0  0  0  0
 10 11  1  0  0  0  0
  7 10  2  0  0  0  0
  6  7  1  0  0  0  0
  5  6  2  0  0  0  0
  4  5  1  0  0  0  0
  3  4  2  0  0  0  0
  2  3  1  0  0  0  0
  1  2  1  0  0  0  0
 23  1  1  0  0  0  0
 24  1  1  0  0  0  0
 25  1  1  0  0  0  0
 26  5  1  0  0  0  0
  8  7  1  0  0  0  0
  9  8  1  0  0  0  0
 27  9  1  0  0  0  0
 28  9  1  0  0  0  0
 29  9  1  0  0  0  0
 30 11  1  0  0  0  0
 31 11  1  0  0  0  0
 13 12  2  0  0  0  0
 14 12  1  0  0  0  0
 15 14  1  0  0  0  0
 16 15  1  0  0  0  0
 32 15  1  0  0  0  0
 33 15  1  0  0  0  0
 17 16  1  0  0  0  0
 34 16  1  0  0  0  0
 35 16  1  0  0  0  0
 18 17  1  0  0  0  0
 36 17  1  0  0  0  0
 37 17  1  0  0  0  0
 19 18  1  0  0  0  0
 22 18  1  0  0  0  0
 38 18  1  0  0  0  0
 20 19  1  0  0  0  0
 21 19  2  0  0  0  0
 39 20  1  0  0  0  0
 40 20  1  0  0  0  0
 41 22  1  0  0  0  0
 42 22  1  0  0  0  0
 10  3  1  0  0  0  0
 22 14  1  0  0  0  0
M  END
>  <FittedScore>
-28.67

$$$$
