A71EV2A-x5317a_best-RMSD
  FITTED

 40 41     0  0  0  0  0  0  0999 V2000
   10.7567   15.3131   24.6344 O    0  0  0  0  0  0  0  0  0  0  0  0
   10.3692   15.1986   23.4910 C    0  0  0  0  0  0  0  0  0  0  0  0
   11.1523   15.6528   22.2743 C    0  0  0  0  0  0  0  0  0  0  0  0
   10.4969   14.8673   21.1273 C    0  0  0  0  0  0  0  0  0  0  0  0
   10.4994   15.4963   19.7359 C    0  0  0  0  0  0  0  0  0  0  0  0
    9.8917   16.5083   19.4428 O    0  0  0  0  0  0  0  0  0  0  0  0
   10.8845   14.6601   18.7599 N    0  0  0  0  0  0  0  0  0  0  0  0
    9.0796   14.5697   21.6336 C    0  0  0  0  0  0  0  0  0  0  0  0
    9.1976   14.6400   23.0970 N    0  0  0  0  0  0  0  0  0  0  0  0
    8.0726   14.1376   23.9517 C    0  0  0  0  0  0  0  0  0  0  0  0
    6.7053   14.3799   23.2919 C    0  0  0  0  0  0  0  0  0  0  0  0
    6.2680   13.6194   22.4427 O    0  0  0  0  0  0  0  0  0  0  0  0
    6.0174   15.4636   23.7363 N    0  0  0  0  0  0  0  0  0  0  0  0
    4.6440   15.8247   23.3610 C    0  0  0  0  0  0  0  0  0  0  0  0
    8.1336   12.6507   24.3694 C    0  0  0  0  0  0  0  0  0  0  0  0
    8.9295   11.6800   23.7208 C    0  0  0  0  0  0  0  0  0  0  0  0
    8.7354   10.3074   23.9702 C    0  0  0  0  0  0  0  0  0  0  0  0
    9.5760    9.2656   23.2441 C    0  0  0  0  0  0  0  0  0  0  0  0
    7.7197    9.9020   24.8545 C    0  0  0  0  0  0  0  0  0  0  0  0
    6.9641   10.8533   25.5455 C    0  0  0  0  0  0  0  0  0  0  0  0
    7.1794   12.2150   25.3146 C    0  0  0  0  0  0  0  0  0  0  0  0
   11.0576   16.7332   22.1360 H    0  0  0  0  0  0  0  0  0  0  0  0
   12.2119   15.3990   22.3770 H    0  0  0  0  0  0  0  0  0  0  0  0
   11.0236   13.9022   21.1000 H    0  0  0  0  0  0  0  0  0  0  0  0
   11.0813   13.6833   18.9686 H    0  0  0  0  0  0  0  0  0  0  0  0
   10.8578   14.9620   17.7940 H    0  0  0  0  0  0  0  0  0  0  0  0
    8.3574   15.3153   21.2828 H    0  0  0  0  0  0  0  0  0  0  0  0
    8.7579   13.5828   21.2871 H    0  0  0  0  0  0  0  0  0  0  0  0
    8.1212   14.7175   24.8792 H    0  0  0  0  0  0  0  0  0  0  0  0
    6.3909   15.9812   24.5295 H    0  0  0  0  0  0  0  0  0  0  0  0
    4.5939   16.1034   22.3042 H    0  0  0  0  0  0  0  0  0  0  0  0
    4.3121   16.6745   23.9668 H    0  0  0  0  0  0  0  0  0  0  0  0
    3.9647   14.9852   23.5383 H    0  0  0  0  0  0  0  0  0  0  0  0
    9.6796   11.9779   22.9919 H    0  0  0  0  0  0  0  0  0  0  0  0
   10.6345    9.5426   23.2584 H    0  0  0  0  0  0  0  0  0  0  0  0
    9.2618    9.1801   22.1987 H    0  0  0  0  0  0  0  0  0  0  0  0
    9.4902    8.2732   23.6997 H    0  0  0  0  0  0  0  0  0  0  0  0
    7.5228    8.8471   25.0262 H    0  0  0  0  0  0  0  0  0  0  0  0
    6.1942   10.5381   26.2444 H    0  0  0  0  0  0  0  0  0  0  0  0
    6.5569   12.9360   25.8409 H    0  0  0  0  0  0  0  0  0  0  0  0
  8  9  1  0  0  0  0
  4  8  1  0  0  0  0
  5  4  1  0  0  0  0
  3  4  1  0  0  0  0
  2  3  1  0  0  0  0
  1  2  2  0  0  0  0
 22  3  1  0  0  0  0
 23  3  1  0  0  0  0
 24  4  1  0  0  0  0
  6  5  2  0  0  0  0
  7  5  1  0  0  0  0
 25  7  1  0  0  0  0
 26  7  1  0  0  0  0
 27  8  1  0  0  0  0
 28  8  1  0  0  0  0
 10  9  1  0  0  0  0
 29 10  1  0  0  0  0
 11 10  1  0  0  0  0
 12 11  2  0  0  0  0
 13 11  1  0  0  0  0
 30 13  1  0  0  0  0
 14 13  1  0  0  0  0
 31 14  1  0  0  0  0
 32 14  1  0  0  0  0
 33 14  1  0  0  0  0
 15 10  1  0  0  0  0
 21 15  2  0  0  0  0
 16 15  1  0  0  0  0
 34 16  1  0  0  0  0
 17 16  2  0  0  0  0
 18 17  1  0  0  0  0
 35 18  1  0  0  0  0
 36 18  1  0  0  0  0
 37 18  1  0  0  0  0
 19 17  1  0  0  0  0
 38 19  1  0  0  0  0
 20 19  2  0  0  0  0
 39 20  1  0  0  0  0
 40 21  1  0  0  0  0
  9  2  1  0  0  0  0
 21 20  1  0  0  0  0
M  END
>  <FittedScore>
-40.73

$$$$
