A71EV2A-x5317a_lowest-energy
  FITTED

 40 41     0  0  0  0  0  0  0999 V2000
   10.7930   15.2300   24.6340 O    0  0  0  0  0  0  0  0  0  0  0  0
   10.3974   15.1668   23.4872 C    0  0  0  0  0  0  0  0  0  0  0  0
   11.1614   15.6878   22.2839 C    0  0  0  0  0  0  0  0  0  0  0  0
   10.5309   14.8981   21.1262 C    0  0  0  0  0  0  0  0  0  0  0  0
   10.5249   15.5417   19.7417 C    0  0  0  0  0  0  0  0  0  0  0  0
    9.8879   16.5390   19.4591 O    0  0  0  0  0  0  0  0  0  0  0  0
   10.9154   14.7151   18.7516 N    0  0  0  0  0  0  0  0  0  0  0  0
    9.1154   14.5590   21.6158 C    0  0  0  0  0  0  0  0  0  0  0  0
    9.2167   14.6504   23.0752 N    0  0  0  0  0  0  0  0  0  0  0  0
    8.0719   14.1698   23.9147 C    0  0  0  0  0  0  0  0  0  0  0  0
    6.7193   14.4198   23.2361 C    0  0  0  0  0  0  0  0  0  0  0  0
    6.2944   13.6660   22.3746 O    0  0  0  0  0  0  0  0  0  0  0  0
    6.0049   15.4713   23.7026 N    0  0  0  0  0  0  0  0  0  0  0  0
    4.6318   15.8129   23.3109 C    0  0  0  0  0  0  0  0  0  0  0  0
    8.1187   12.6821   24.3247 C    0  0  0  0  0  0  0  0  0  0  0  0
    8.9401   11.7223   23.6950 C    0  0  0  0  0  0  0  0  0  0  0  0
    8.7417   10.3477   23.9246 C    0  0  0  0  0  0  0  0  0  0  0  0
    9.5990    9.3045   23.2196 C    0  0  0  0  0  0  0  0  0  0  0  0
    7.7179    9.9283   24.7944 C    0  0  0  0  0  0  0  0  0  0  0  0
    6.9371   10.8722   25.4693 C    0  0  0  0  0  0  0  0  0  0  0  0
    7.1482   12.2352   25.2471 C    0  0  0  0  0  0  0  0  0  0  0  0
   10.9996   16.7659   22.1816 H    0  0  0  0  0  0  0  0  0  0  0  0
   12.2371   15.4950   22.3596 H    0  0  0  0  0  0  0  0  0  0  0  0
   11.0847   13.9492   21.0906 H    0  0  0  0  0  0  0  0  0  0  0  0
   10.8599   15.0233   17.7873 H    0  0  0  0  0  0  0  0  0  0  0  0
   11.1261   13.7352   18.9522 H    0  0  0  0  0  0  0  0  0  0  0  0
    8.3711   15.2670   21.2403 H    0  0  0  0  0  0  0  0  0  0  0  0
    8.8367   13.5566   21.2883 H    0  0  0  0  0  0  0  0  0  0  0  0
    8.1098   14.7438   24.8458 H    0  0  0  0  0  0  0  0  0  0  0  0
    6.3465   15.9543   24.5295 H    0  0  0  0  0  0  0  0  0  0  0  0
    4.5953   16.0996   22.2580 H    0  0  0  0  0  0  0  0  0  0  0  0
    3.9628   14.9683   23.4792 H    0  0  0  0  0  0  0  0  0  0  0  0
    4.2710   16.6622   23.9009 H    0  0  0  0  0  0  0  0  0  0  0  0
    9.7154   12.0246   22.9992 H    0  0  0  0  0  0  0  0  0  0  0  0
    9.0318    8.3829   23.0561 H    0  0  0  0  0  0  0  0  0  0  0  0
   10.4834    9.0769   23.8197 H    0  0  0  0  0  0  0  0  0  0  0  0
    9.9626    9.6560   22.2517 H    0  0  0  0  0  0  0  0  0  0  0  0
    7.5357    8.8689   24.9645 H    0  0  0  0  0  0  0  0  0  0  0  0
    6.1555   10.5506   26.1528 H    0  0  0  0  0  0  0  0  0  0  0  0
    6.5150   12.9544   25.7613 H    0  0  0  0  0  0  0  0  0  0  0  0
  8  9  1  0  0  0  0
  4  8  1  0  0  0  0
  5  4  1  0  0  0  0
  3  4  1  0  0  0  0
  2  3  1  0  0  0  0
  1  2  2  0  0  0  0
 22  3  1  0  0  0  0
 23  3  1  0  0  0  0
 24  4  1  0  0  0  0
  6  5  2  0  0  0  0
  7  5  1  0  0  0  0
 25  7  1  0  0  0  0
 26  7  1  0  0  0  0
 27  8  1  0  0  0  0
 28  8  1  0  0  0  0
 10  9  1  0  0  0  0
 29 10  1  0  0  0  0
 11 10  1  0  0  0  0
 12 11  2  0  0  0  0
 13 11  1  0  0  0  0
 30 13  1  0  0  0  0
 14 13  1  0  0  0  0
 31 14  1  0  0  0  0
 32 14  1  0  0  0  0
 33 14  1  0  0  0  0
 15 10  1  0  0  0  0
 21 15  2  0  0  0  0
 16 15  1  0  0  0  0
 34 16  1  0  0  0  0
 17 16  2  0  0  0  0
 18 17  1  0  0  0  0
 35 18  1  0  0  0  0
 36 18  1  0  0  0  0
 37 18  1  0  0  0  0
 19 17  1  0  0  0  0
 38 19  1  0  0  0  0
 20 19  2  0  0  0  0
 39 20  1  0  0  0  0
 40 21  1  0  0  0  0
  9  2  1  0  0  0  0
 21 20  1  0  0  0  0
M  END
>  <FittedScore>
-40.49

$$$$
